* C:\Users\User\Desktop\Engineering project hardware\DC-DC_Converter_Tester_Hardware\Symulacje\MP9928\Moje_symulacje\MP9928_SteadyState.sxsch
*#SIMETRIX
.ac DEC 25 1k 1Meg
.options
+ PSP_NPT=10001
+ POP_ITRMAX=20
+ POP_OUTPUT_CYCLES=5
+ SNAPSHOT_INTVL=0
+ MIN_AVG_TOPOLOGY_DUR=1a
+ AVG_TOPOLOGY_DUR_MEASUREMENT_WINDOW=128
.pop
+ TRIG_GATE={TRIG_GATE}
+ TRIG_COND=0_TO_1
+ MAX_PERIOD=1m
+ CONVERGENCE=10f
+ CYCLES_BEFORE_LAUNCH=500
+ TD_RUN_AFTER_POP_FAILS=-1
.tran 10m 0

.SUBCKT MP9928  102 81 85 98 100 101 79 95 86 78 105 99 89 94 83 106 103 104
.NODE_MAP FAULT 73
.NODE_MAP FREQ 83
.NODE_MAP IN_SS 91
.NODE_MAP BST 81
.NODE_MAP PWM 80
.NODE_MAP OCP 97
.NODE_MAP TG 89
.NODE_MAP CCM_AAM 86
.NODE_MAP PG 105
.NODE_MAP FB 98
.NODE_MAP HICCUP 84
.NODE_MAP REF 77
.NODE_MAP BG 94
.NODE_MAP Iinductor 92
.NODE_MAP EN_SYNC 101
.NODE_MAP PGND 79
.NODE_MAP SENSE_NEG 104
.NODE_MAP SGND 99
.NODE_MAP ILIM 106
.NODE_MAP OVP 87
.NODE_MAP VCC 78
.NODE_MAP AAM_MODE 90
.NODE_MAP LSlimit 93
.NODE_MAP CLK 76
.NODE_MAP SENSE_POS 103
.NODE_MAP COMP 95
.NODE_MAP UVLO 72
.NODE_MAP OC 82
.NODE_MAP EN_OK 75
.NODE_MAP LATCH 74
.NODE_MAP IN 102
.NODE_MAP SS 100
.NODE_MAP SW 85
.NODE_MAP ZCD 88
.NODE_MAP VREF 96
*
?@@--START ENCRYPTION: "MPS MP9928 Encryption"
?@@RpDYQ5+GYNdJc5g3QqI9kvHvBtenl2ahEghTmdBApHxmcHFclUi9rpwjVAUoIR1jrn5x?##
?@@S7s4/ER1AR80L47vrxNaywcyr+LiSnvsLO3zIYMo57HrwXzUS39+HlOB05J4Bdb8TLim?##
?@@gIMlSjCs6eyXVLkHGBiocWm+ZRqktZIQIy9f/L8q2d0KVSGaCCZzjYQufdZlcbWxA7qt?##
?@@OSH5ymzUkLn7RDzp0Dx1wbtDPCO5zf3Ta7mIqrLp7h10VPWmwtPKDdZnqlwd9esI9KJx?##
?@@UvjWa7YGP52U7nv/1opYpDupOFYCEEeCtU/Cc8qjK/XLyhekIc1CQlEjZalavD0IF3r7?##
?@@Y4obSUEYZ/gX8g14sIjHACOf/hJa3oFfGeIws3ESUtK4Wt7khtvl5xBF86gG1BgloJv1?##
?@@vIe+AhUqULvCfyI1BkqJ2C45f5/Fpbo+Oy1VPHBrf+udLjLtzAT6i8CXEwoR1Ktc9i2M?##
?@@beDavcnd6oWbHxlZTHoEGH0wFoVkEKzSSs8YtlKxIJEuyr+E/iibdmIYxx2HolmG1RvN?##
?@@3qtHv6ToW4oksrUe6db+5nsOAioO/xV2XzcYMx12rCE8WxdrtDPRO1hNRcdsFEej+GR5?##
?@@W0WChosR5wpspmMcwSklzgppWxkuRBiaYtC5hxNLB3C1yxzJu8uDz0ieuv8z8s3mfb0W?##
?@@YHDiQFT0OFty6Kf/i3+ooAk9m/9Cxv7+0dMfBi131EaxEAweaPdqbE4tH+oMu94dzyQn?##
?@@GQ6WvjTgLOp1TIwHqYWG2q3D1gKsYeMwnI/D06usYid+Q6ui/goZmcA6HGvj+MwLa5WJ?##
?@@di2G2F2zEby0Jwj+snyPts2b+NWp3312uUfYvhXEQHMEuGF58+B4DLsKLuGHNE9rTp3E?##
?@@t1xeSHGJYGAiNCCc0OBglKSMKfQP+inPjtbJWnqgzQHnjc/jbj3IcbEfTeXkZDDy3UVa?##
?@@dBxfJ8sAt2tOqKBMG6bZjFevlXycZFHdU0t/v+4SMkfD4G82RODAL2l5ryLVMBAvnV4K?##
?@@mVoi7TQJiZDwM3EYAoz1QF6TWMimLpG3kwTwGMWglFGe3V7vuhm8nwEfUxaFyAszj+9d?##
?@@NgfAwV0rLLEJuxG/nSTrzUo5i/TSz3Nsi4R1cRp+xunEssncDbEAwuQm5My1jGcqNr6k?##
?@@e1jlkneiIrU6rPo4m3J9008JRrgrFNy+2OeguFzCVOwvLFjmCWAtBNzDnYekXNgKPufu?##
?@@JGxoitRz16L1Qk7pC3xVcCSHaRyXhHtdCszAY1Jo4GS5Up1TAmiVCyJzoCexupRUcy9K?##
?@@oZ+6sAy/jeDxqM/CFgnioYDIrzFwsKCBwZN/CWmbb8i75+kvpr7aY4rt20OR8mE4mW0A?##
?@@jvxQIUOvLtbXSSsiEmF0nvARPeASaFWNLNPQpPN8Bg6cxxItlu12UcTew9zLrZMdVMXV?##
?@@B3M+h8krMNQKgzc7k/vGhSqbpZiV2lN0Sn+YmARWGlavGkCAe7cwt4FrTAxz8ZN39Nx2?##
?@@IEocKCa0IyO6yy4I848GupEflOSjzwuCV3NQnAE0zKhXyRusyxp7p9Lc0rD+6AR19FXH?##
?@@OSH5ygtgvUvv4CUYAu2nrA3gpfLi//PgqZiEN8lafqa5TriGU2ovcAN/oV/dRQZ2ySEE?##
?@@PkxYg0VV8S5xRNKyR1VjWy3aoTXhtMTCI6lrS9fbw0s6FPue6owRU0ukPN+L5EmGhyMk?##
?@@25IOtT7tFlEI2drqgSBuGU7qfMavrczw6a8cFAIAw1t41fa+BbiYWZDVqR5zvgglSM9t?##
?@@pLn0uTk5XWJKZ+dn8v3UJQBn3N5zgU+yUazEFUqpsxly0woZDdiUBIpKUQWm+fRAFp5/?##
?@@VREQdKALN4UHNI8lUiSsEAupow6CLcXjuH8RReOWO1Dn7DUVSXsv025MLPo4QTgjKgYQ?##
?@@+pxeaWUZh8O+kpLIxDWNSO6oMLfKteiCoznXfHcuBywX/qD4NLG9m2D5UeUc3HloogI6?##
?@@L8s6VjilcL/kqIv685FaAHHT+SPUzVWS9SppLToCVAToSxDHArUlGcx214anukPS7xjA?##
?@@dBxfJ0yDkKlkSdWwTH9PU3fuf9AEI4UxzlnOgDfph6HZd4lr+9HwNFnXW3FdVWwCIjK9?##
?@@3aM0ZkxByk4EIPo4K36cSOBI4dkPkfDcX+f4Ne3Bokch44ZCdyE1yBoKL2/mpc/ENFX7?##
?@@ZqRUUqUFDt+pAWTF7d8LYvZwZdFQppOkEFz/Byd2nQ9Cu2WPLlO7twHsoOyfy7rRXIas?##
?@@+6VxwXLkstxkfbBJtmNvsh0sS2YYfs93S1QYxbcGtLF4Zo2P2DapgWR+3xKqjhwMLoO0?##
?@@rP6MfFMyQCPKzuY/Jg784s0cUwNGPiSwIq2AMbox5mrVpD753pFS8o/KEDXPNl8fPFbY?##
?@@DaaxmWGN07wNXRSsGKFl/f4G9MKexbXnIzzB9HS4ihqWH3y5j3XJFU5NqgBwnHe+GtLn?##
?@@di2G2HltEq5xnmqBEs53WqoGxF9OtXRMRLerf2eHfegOidiZ/mdbWoDMS5Zvza73SDFr?##
?@@82DY/vrT5U05vtaN4Y0lRsQeHtKWZhTKM9Aai2NygGt2ACW+W3TdUv+Hymq8tOd4f4z0?##
?@@6AEGMjKkERmBXFVsSHnPSGti0gOZwe5HWlSNb04cLGSbNscHcpF9gKUe1U8mBsvGjuWs?##
?@@qeRTc84cfUIjDKMkjqocc1HCtbgVbYFp4F0kcQqfFO4kCgarj+AG2JT15L0HBnj8xSFl?##
?@@di2G2Hj7TaWEmk7CwBaV0xT0j0AWlZOyhaBkIGXLSGYd5QHflgNYUJhjx065DhvtBlIB?##
?@@g51+VYozUyme+NhuBNzoQEztxr6lezLGylJa2F1/6qcHQdnFNadLWcTQKHPs5jULVqhr?##
?@@vIe+ArqMtn0Ens5X9BJkTHBkS4vcH+4YY7K7DeNcqHhmJ0x7D+pym1dB6oqagMCja6H3?##
?@@lTjVjP6UHBpvToDqLVcgyr6oeNBMXI1y8m4Iy/RBFO3O6C5BX52kQ5CXr3K8kbaJweLT?##
?@@PkxYgy7O/KUHUFuGsm6rL9005ETMBGCHeHeuN3N87wKd7EFP6sv1pvFHp2oYa/u0agbO?##
?@@cxNMz4zujvqhRFHc5Yy24CtHUx9GjmDRGNASMOCI79upcLcjDKGYgIxhN8fE5B+P3rnY?##
?@@QF1/NFdLisSdnp6hWXFVeNXDePNpD3C7v8aHfT/c1L5AzWHE8FgjCbuDYh/yWA7rLUCW?##
?@@pcEHEtKmQEQWHeTOI5lWVr5Hdaz3lucASOXeS2aq8TKAnss7yFzz4B6WaY0y/uJw8B5L?##
?@@9noRBwjkIVgqkIJ6mlgX30sm1BKbcphXPl/IbDDX6g2FLZn9CxnE+qd4D8dI6+oNXpg6?##
?@@12/BVFljz8TCyHp6wOmEbqjDJcnnh7VvDyJgZHjm6CjNFdYe2DLUrmRecg2VA5CiGe4P?##
?@@fGH46gB4vdUqQuqkKkXKX2ZE0yyMWd03UCRmiWVe/3sNV5HbdFKmKSBMMUMEV9ylUVAf?##
?@@beDavWCVimTYHU83xTtaUt8anL/FeytfsDhBtrbdB6VPym+0DbrjRjmHLNOq480aBnH+?##
?@@gpRr/QOlcvE6kBcVbkvFuYQ2bRjr2KmKOa1K1QAbagAjiOkqg+natpaCoQXqg6fNq6Ag?##
?@@h7/Ktsqux949KIppP14XIwdVmlVADiC3b8meMee/6FZx0yQBaTfOOR5wv2cWzVkHMJuq?##
?@@nHRb9twEwzReUooDUVAUbJdWQPHgK58TA18iSxhuVnmCEAoDzmapA/ACijVZRj1lbRqk?##
?@@ab2NW49bkC6HubPM1URsgw/BoPaokpROvGqYOzi/aK4iek3wJ4VraNO8sUPDM2SR4xfa?##
?@@UvjWa0O/fPw/hl9WbMJ9RPm9lya3eXxugtvLK41nYxDL689Qgmn9aGUQPKYuG3pAyGCW?##
?@@q/V5JP7UWPv27poTdoFadWyzJOftwOtAL0+FVCKdxSWqUOHuY/hrPJ2rZ7mOdCL+Ag16?##
?@@UOawuir8TqotqK3Hx57FLctorZgEMgyYMQ8GCW8IW6QyShyHxnsrqAZuxfq2pJhGKafg?##
?@@PUNFKz2Taymn5qSqiDSQi22OyUyCM3NYSwMovz5HH6l7tg9uWty6Ae3h3m5lPfK/3U4h?##
?@@Xl+7j4I71Z0Ps4/cGtHW1Y5z/HN2wCBz1qbYBC2pTuBmZvoUBeFr+q8ZSSspjixbsGoX?##
?@@X2fO6H5W0VyP75e5gK7UPpUbzbGc7gWyk9QwSLwMc8rIht6m+nO/2qMlGEoiZ1N2emXV?##
?@@1FaIS3HI26EpMtciNpwCbKwUM2xemi6pNcCzHgWau0IDnNl1zHoYoN2d8v2GZvUSg675?##
?@@3aM0ZoR2DsFT2uypsUj18CPa5e6v/+zptPwqX5SSZRaRaQTLT2eADaBDNh1N9hufWxkH?##
?@@vpjks6Q2svqdscDQqY2WfONlSy1lyzwGTvhT1ibNjYpl+7ZiHLLXmB5F9XxzKOtetV1w?##
?@@25IOtf7NEmQYx56t+McDmmzHZ0bXXOmQepNxdCGqoE4cHRD+KNQqOnDnbCtWqXM93XC+?##
?@@7CRSlLfuNIMjX5QLxZqVcv8JoJQocInctQxJTAcThhyZmvsdMe01xHmrEZWd0sGtVTUr?##
?@@zRkC4Hq8WPeuSYf8ftpS0vQ7sdupd6ZIneeI0CGtxixddU2kWZPJLz5cslwK35r5x1Ol?##
?@@elDSOsoApHPfjeCvWxJDNuK4q3CyCejWAfR6fEytuylPfxoKPUGLoHUSakUsq9xpwLam?##
?@@F/xwDVhmsw8uSKSWVfQKfCEnBgpklGpuhcEwVHCtssf9Q/okdmwH/zCFc4QYFz5Z3kJM?##
?@@GAWDZfqWivODJ0pF8AItBvds5aTPbDuNelj+bbMkgEWbikH/QQ/lsHWyhdjrohIS3QJr?##
?@@Ecn9+0AbhBoMAjvRCaXm7xkbGsbJpbySK61ym9W4ESQXTHjHvOJy2IB4/pJxnw4q2nUo?##
?@@vpjks3UGYj/+FgQ1tXXA1tDtZlSyp/JV9vsuGJh0biweqkNcb9DoJ92cPIDiD5AUStnR?##
?@@x+aQziqSmWacv3z6dg8smxsB/dodoivsCBDpQv+nqY7MvNbSJRdLln6wF0DHySSAgA5y?##
?@@kA120qEb4wgLI9XaAswU/kXd58a4ibncTwVsMJ6+u7lMqUBVtPsQ0NzVlYBIrtpS0dnF?##
?@@beDavWXh6gfqSc7gaU5Iol+CGRYO2Owho7cEPds3ayzJIV+mXgwEB+NrEsuJFA6luBw7?##
?@@OikMIgLDvenJwcOh7nFVJzLdSf/PU85Q35RZkcVP0yDPsZl3WuCIa8YVYQiBRq4Xq2jg?##
?@@VyM2JeEz6xvMXhH8j860bs3CPjC7sZDGzBjHsTKJ1/7TkeL3x84U+HaSfIxQPY3m0CR+?##
?@@6AEGMryHNwJZkGgt08L1b80as2ZR85+ou552DCwH7pTF9rAo1X2KovMB28PMM6eYmiCp?##
?@@/baXctIxOLviEWgYzx9GACtA+Z5xNBMA6ByPGDcAa7+0xYwnPeYtO1i5Y5iNdINCA6Hq?##
?@@jvxQITM3+L+g808NEmKPv7U4Y+L1tUfZgMn0m/8DN6ml7qmj4bx98cPsaZHfQMMY/buH?##
?@@82DY/oDZY2r5JY1MuCTkIZIfVO3/aJsE1ClM1znvexmy9bV2LvZ4nfG6WmlcRzwuD1e+?##
?@@1FaISwTku0rOGBnoAwAUTUKR4zdgiLxhjzLZCS2xWCbbCFAN4i5VT+Fljq79VJGPFctI?##
?@@+ZRLEU7clxpowcw/MdvEzyH72axICjCricHW/jkKxLaqRCwFCmycfJDlMqlqxFT/nYYe?##
?@@tlRL8L314ptIL/SWhuURZR1Hcuv9RVy4GaQxalFbbRS/vP8WedW6559WNH/asnxWns0B?##
?@@5/nz2u5FGJYaPelJSAFZOVvK2NrYGwO/kbxm8hIj46P33gAQ9ht/Wxrjp1Az4EkTTlz9?##
?@@JGxoih+wFowePLlvedTfHQzVHe8cgEqCHo6vOyeIuTf+IX0Bf2WLM582InZCBJjoblw+?##
?@@WTRc1Ys49B4QvF7ZUGvq5jdzfEp/ZkmQ+OXpY7wMtCaAGNjMTQKO411QVzphNw1Lgn9w?##
?@@+pxeaelwk8uqXikchodkY7taWqjPN5ACeBmy2G/OJxQ30HpY2vtGYm307hxLxznAx4pX?##
?@@001180FftNFbk19FnA3pJKLmAjEN9oQvz1JLIrKdIXop67agD/wIJfM57FdWWoRy1a8t?##
?@@BFkFfthZy4G+iYtqL4eM8qSKAkoOY3xN8QgsniUWcHIsvlNU4RmgW8x8VJywLE9HYmQh?##
?@@Nf6taMreenMzH0rhzN5Vjy/I6uZ2Y7Jpw/8yX8JWg2hHSKmO2MyJYp6287BJ4YOHjX0B?##
?@@ygDJ15B+J2q1o12zd+ccJoq3lbG7cWq0l8YNSoU8MQW4BwXLFx/TNuatOq/+JIHE4838?##
?@@F/xwDeezCwnZWmRcM58D7TA2ASqNpqmq6ccUVBsYqr3mXEjI79Di9QwaWn8vLKYeBxTD?##
?@@XE6V3ysEyhFqkmhnSu2u31Lz9sik4kcgaeRZsZFpTK8twBJetVWH31STAE6o1Ugzz1y9?##
?@@MdxgBw2CdjOMKF9Wj8Y13IiYxJuzQe4aga6c6O6598DuSJyPv5MnpRHytYA0fd0nFMaH?##
?@@Hjn1eI6graazTlSwDVT1xoGhgt6yPoHnvh75YpkcUGSSmxOyVGsBZv5Ot4St5UPzoRpU?##
?@@+6VxwUpFIDq0oSDlDwrobDzIFWl2vtsjA+ztYvHceEMcZ+X7tMYZOr7QCmj8MKUJew/T?##
?@@MNNNrstmWJbsqj0qgYxh/aor2GN19au12WFXMrY5PZTWVYOqyvGkUMR96Vti88rk5v3y?##
?@@QWaSjcc7Fn2PGl7Mc+b3xoPempazXz/WsBnnStba2TUMfGpR8Xj4I545HEq23H3h3whl?##
?@@cgs5d6pW7rRj+AyUd7hvP6lEnBxb+BQ61NFChQ5/756jtAGYyJmYo8E4gmCWAhVpU7mP?##
?@@i+IWGLLjyUhfXYi6837YbZY1SrSjy1cmF0WMeUt7wDOaCLMuIp3xJUbs7DcVhyW1ujan?##
?@@fGH46oiSQJRnVxQHOe3NvI1DsIV2Uph0RzPNJv8L7OAonoSe5K2mhMtSpeN/Vw7K0Lv6?##
?@@6QoZi3vM29Usf+QPLlTHNb13I2ihiAI1ZdBcLBjlxh+DMBZ8AF3RaJayhyjWUrlrPAji?##
?@@BmorL4xaOVRzek3jtT06qh5jR9AKgl0rvzgv04Fkn8zbf03wlkckutst99/Zu+94U9XB?##
?@@I2RVMVoR4ITmwVFXpSimpOmmAxD1ZQuX+m5tTup/lLcwApjYfcrHfY672D/Ftnqrx/R6?##
?@@7CRSlKeFUdKtqYhpmOUFHfJTvVr4zqS3XyGJzNj5HOzEZX6N6gYp8aAGuMrD49NtohVQ?##
?@@kRWJKj86sD+6H/Mt0yjvlcZxUbDaFbrjbvqChJDjymH1VVN+A+e7M8W5D/ahg291+6K4?##
?@@MuVzX3ODKlNByGxOO29cf24Vo2q25/gRkHKxXYtKCKYGxehQkWNstrVgO4SwhHnfBCbj?##
?@@dzaZMUpSCnLZReEYhskkW8LuV9qzKIHi/cD2jsEGlPPPzucCkFwTDCi6kAfByjUdTrO+?##
?@@KI+0690vyEOagHnb/TwDrUMvGJy1CQ5yZlcwWPFuIiDMT0RenIbA5AG9tJgrH7Xu5VXO?##
?@@Nf6taLOwu7hnC4mwMHnr9Etg/c5mvPXiW2TPWZsjTQ/cNCUmTNd9+MJznTPFF+lnXwom?##
?@@elDSOip8Rstxt/U+eletDBUq7Mq7Q06ZwOJRimOeAM+E6c19KFILE3myCYPeeinoxc88?##
?@@VyM2JRLaXgKVEMHFwJHqmI/PdK2bvXUatuTWyOxXCZj1ngZLy4ig0RJpS3vV5RzBZjWV?##
?@@8Eaf9XfAXYtDW8Our+t7JGdIBzvEMJTPhchEhqpEmKzvdLh3rTVr5cMiy5czaYv2+73d?##
?@@uW2F+WrpwWJEf0C+RogBpTlx5yCQV5bNNWHlMBfmCYtHrtt0HDR5zn/mITIDDV/g1s7h?##
?@@4s6TIFOJ5JlKkin3u2TpixrTceduFKm0m/K82S4FlFAONhLzaPYR27L0A9g/WCwIWPek?##
?@@J4ahk538xT3BmQaPi42u7GyeaLF1bZr99FjzXrgk89gSswhSUi8XBTvAvPTz9eID/CqF?##
?@@+Is3uK0iI8W/zdhSqO/Ygg5wG24oYZVBUd+awl4NAwCRqdiR5dqzOLEd1gNpJe3sX18o?##
?@@jfM9yQYG+2CidWlPrZd0nrk1Mepos+ZPHsB2CkObqqGcUpnwjXd2wOu7Dzt1krZzyr8S?##
?@@ZqRUUtnDRW5tTmIGBV6/NepBve6ip6oDXI8Atcyqko0RcXqTROWpkDnrpkOyjLXQpwgP?##
?@@+6VxwcNlsP72/giNOUtff4wyWnatzf3tn4VrliWTl1kI3ZaRL95+HWjKynaGoBD8p6CC?##
?@@SKIX9wzKcHl4h5s+K70+Y8S8M96M2lHi6wS4Esx6solFV8Iig8Ai15z2wCJ9x0yYIlQ9?##
?@@cQImHmYT1b70Pe/HrZit+tOmeUSflLt9BrI3sIJZTC0bm+j/BMVyEuMMK3wHg7Df3S/N?##
?@@TtWKCbPQhdkTVwMFTG9xP02zVcdz+XWoIirWpuVxGJ3dMHJBfLWwsR+OZ7WVFS91iqEq?##
?@@D7jXSrOvJ9nPI7aeBKUeDBIITv9Yi6x4Ej8HCl+rJ8cHzae8MfC/G/iueOCYbv0671hb?##
?@@cPoTxia3VSWvk0j20O9j9cZv8NW8JEl2Ugad7hWNHqgJLVV6GHWdN/D2cyx7ITQzLD6E?##
?@@GQ6WvkPSlMvpApfIZ8d4xYSSnDWY20zSMDsDUn0eTTBORCa+ACf5wx82NMVZJxsvm0wY?##
?@@bujtFcWBsyxdj5kUpRdQlmN8GsGWSgfzbPi5tKheNISj+O8lubMDT3MWwsuJVF1gnOic?##
?@@w8NEbUVRG16NJA4uWBKh3Rda7T7q/Y7ey9pa1ssU3ReFJkfjtklF9mI3LdsQgpZjSzSe?##
?@@vIe+Anmi7nnp+SUm7MInQ+cULc2Oh/cM1erTPoZqeXNc6vag71Ie5JC5rRWz4TAsm4sX?##
?@@KZfHRK/qfKmMLPzMTlvWm53xJQUqk0nRQi5lIgfcmzd4PH63CIP0wHdY9deI+0vOXQkr?##
?@@WjxvLl4ajR0o7p0KZsPWSVddGT/+xVZeNgK4WExMtnsD/DJ6BAHDgydpdVQtH+SdOBgK?##
?@@X2fO6CLoY3BgGBAx33f1dihJRBcSmJFd2rB9peKyQQSC2yE0adBAkSR3QbK4p/zIl/la?##
?@@aLV6A845UW78zYCBJ78btHwtGEV1dZDakwqg+BZ0TeYIWSzsNU8xa4kjLuW2hTs/oliw?##
?@@lTjVjJqe0Sq2tMlZ/1bboWv0RoHYIDN4CJb0+u6Y/isRC6ALMACBSmMEf9g+VocWcK2S?##
?@@KqDbnFEpd+jyUlQiZEhy2y4TiWjGjvDWl/2/py0LBQhHwQcDd9NCo3uiqy+cD+GUQK/R?##
?@@7z6MneU1u6S5qicZ3qT81iYbij1edmlLvY98JhBYBXXXsQKVa4kW863QV5M/jMptqNOH?##
?@@OBjmcTJTNdXJ7Asuf32/iEr9C9GI+4EVeF6Tk925sQy6fMrdplaRtCVQ4gEMmj52vCRR?##
?@@RYje7pxQnrIOPirC2SrAogIWHzdKEiYhHb8fV9IEOtRAKQ2wx2kHsR96PeJr0KtZ1Gu5?##
?@@SrM+qL4C1zbUXDeHz0oUkWqLsGVw+LWbQYspWkcRbqRWqGuErPgseL5yr4J0VvY52FXr?##
?@@M+2Gt1ecDH9Y3VUaRzWRejMJpSWMTo71e5jVyilfuedpn9m8JnVhUKEUBZ+FLNtOhCB+?##
?@@EMDqosbmRSwTXOCO7AA7+K/DQ+2E5f6oVMN0YhggjB1ECMooO7vIbd2UPfReg654+mA5?##
?@@dSVygHBKEebSHrp4Au2PvizP9E/v06wC47agHPtvSIicFDXwL7MetVFYtju6zYmqchby?##
?@@gpRr/XD4jd7hQS9AXgZzaf9PjWgaf1OMeGn5knwQXpjaGvIV3S+Fuqst5CYsUB3CWmJ/?##
?@@e1jlktcMiskv1fcA92B83hKTP94r/Jzy2x4Qwq3nxJrtew31nto36FiHAAv+xAQz2VF0?##
?@@xMxXxa1lApf5pCyN5blXiRqlf4YV6HXmwDZLvReI6kmbvFvQdI1qh6OaG7jsz+ws0pIt?##
?@@sSnsNt591d482AYHswiXCOI5CbLJ5yCHAz5RQNfmFcfVTm1JfnAopUV8t4Vnip+68OCj?##
?@@gpRr/cUp8eHd+FFYbhLr2wV7ifTCJtrpb/a62IHz5C0vdQ8cYnT+qLFEAOqAJYCm7h66?##
?@@M+2Gt8FXz0ytqIF4MMQznL6MeJZNGUgXJBTQ79LGIFKuL9LG8Eeskbzn+R9jTp6wA0U0?##
?@@6AEGMoZ5oiiGHwcYzCfu7XkhTVdNbd/Oyx9J/xIbtzeAE06UaQWErA7MvoMrbN0gtE7u?##
?@@FetKXG7MHUDqrWzUjMunZD6nWUwxULIIIKY2WXcaaVGBFIoPGY3ocmw28TdQtRadMye7?##
?@@6hMs40J4E32sE4TYs1YcfeXy0/4huvEaFTdQDUQyrLal8H91sNksUEoMqQ4V5XnjY/Th?##
?@@h7/KtpSexUYxycbXs5YCJxKgJyXzaNi8rZpA5mOq38kWaAa96brmmYI8uPhGfkYQ260x?##
?@@lC/CM18hAnLjGVl+cvyqmgyTOBEKJDDzCWeLcQZZoqQPLvOsJcYT0bnQE5cEavKUb8b0?##
?@@dSVygO8NiIaDKwby3HMKdM31uNgibkeNRAHv91o1Ba6fmOqnIUMOfT9zcXy6v+nk1Pfm?##
?@@GhapFjmy/Lfzp3gKZVdL3SBOatGmw6U92SXOZ8cUnclyVSgJz1QpidOxBGj6C3DoFF7I?##
?@@J4ahk/0UxuoS6FDCZ0oTMCvSQYIoYZTDIEdEsb8Jd3aLbeTsFuMbBF8b1yjwiY3c8STf?##
?@@NPaZEJEv/YWu1hrfhTsp33n1PnCGXiCROUmcNgwO2OmcIp9dEa/FU0XAv7GvTe5y5RD8?##
?@@ZZtB+sXjcubJQJtJT+RWFGRICcUlcEDwDGs5LzuJlXsF7r94qKb0Sz61Fi0/M1819IQl?##
?@@9noRB8/AgzCI/4IvpJRz9r27X+lVa/Xvh8Qw7NB+0qWEbnBuHLo8/eD3JZ83RmE5GeA4?##
?@@T96dYo1RviUAEVWbyVzCvDapJQlVaO5DvD+HXixZOFi1ONIGNGVHcTu3JGSNL2AA3/n3?##
?@@kA120t1f/V3o5EkdZWXLdl7wszMAT7oHwQ3tPtGMAZ8fq6lmJjsKweatU/d8H0zJEdDA?##
?@@xdVqHX8mTn5vS17JGww1xbaKTIMTysbGKglHOieOFvnew37y4SleiytTu34a+qVYk0rg?##
?@@7jV5RAjjELXiluNfzVnDBKA488yMtJLWn8EJVYq2fj88H2TgzFqKC3tIujWVuIWwy5AQ?##
?@@w8NEbWsEOfV2xzi/qpSPq6wTqSNt0tD8VQOqrauWK/hHzJhpoF6WvVOrRUpy7m0d7DEn?##
?@@vIe+AgEKUGhzWPEbhiz/IzKREeDskS/2Tlc/N/LS1Gk4vQDwGWZqHPD7znw1sEhudPNT?##
?@@OSH5ysGQ13eVQ6aiGHWCzARu4T5rvGswkOfs0Pd1KktiRJD2mVmeoKFu3CIcS9IUJ5UN?##
?@@Xl+7j8BgKA6kbknQw9QilT0vUubPcT0mMF4wI90PRp49/7iGhqyKvtn5qftiZkE3+qpK?##
?@@n46U/9klvetCsKOxdlsNixz7cDoh+kK6uYiP5TO0IE+Vb/XNYGl/Ny3CzsjrxtzlRrh6?##
?@@kA120kxBEPPTkydWJ40qTlmNyNqypz1AyxJPJHowpTjfGdWJgZS8NilLmp5odUjGgvMd?##
?@@7Sxl7HOsfihKyGCVqjP5eOAKKjix2YzYyWYF7o9/heUIbor6wGoqk0xLHZoKsztThPex?##
?@@+pxeaRdXPlMNnQ37Qo5m6Nr9e4Yy/hrDFDHc7rpE4U9chYv15qRvdMjE1JJiVHPwiSep?##
?@@f3sx89zqNcNavTJEqgBJ2/VbNAQVWGJg22GVqW5zP5+puI2+7EBBQF82bDYnhDYqFG5w?##
?@@NPaZEOOazcZ6n4jShV9tZP8cm8kVhjCmwwt95Dt63PjA6OE9Dgtnit8ZiWw/Pm7XRvUf?##
?@@LboUpaXEZyBZ8uF42s8/qE2iOfmrdlnweoUoTBFLmgqTjKiMs0wBjdi8Ay99jZhS0sG4?##
?@@LsIn/oOAuWLYmyOYY/1A5lV6SUPqbgcC0bmGCXuNBmhQrZPeSNChRFJdjK6ocmwNsnMp?##
?@@94IkYIoyRcHMtJ2ic19mrI8C5xfWoEYQJkDWurpbLCqj+03p6PWTv8lpZBwO+xCBcKhw?##
?@@xMxXxfarJH/oeCLrjmuBo8fAzRl7IDWYhw/E/DF5iFvQ0SXbShxpsyvicilKUvn8LiDY?##
?@@/baXcm2ZBzbymRUTgqe5+O4P7emGxnzkUOtMpP7T1AunFL9DGctAQ57BLlYnl2eFBClz?##
?@@wrswFAbUDBg+BTYfU+suKBipJepWjSskA2f+UCPeuUyOaecuvpZdo9zew5tCSpXtuAsJ?##
?@@H0EJ0D8cn9bbjGJ+LHeGBdgxYkO/aNtg7xxXQnAHRLpNm74LsdZ7P0YBsxiufdiEqsPq?##
?@@FOM3BIDm0RyY9mzyRCiOvUQw36hghM9+Eq3YWmeHlynRH3Xq8O9/92mgv2c2tRj7H7OO?##
?@@WTRc1Rf5K28IOX8oY2Zkpi5B7bu04kqlUQeZ3z2yGrUIa4QPNlgKcPxOJZ08fa7qNDej?##
?@@ygDJ1wLrKojI+IJCYjo1G43/88yfIrdvd3pBPfQRHdB+VVXNCHIuodDkfrNy3f/vGFTb?##
?@@/8e9IwzCiAeO+7lJbPiSa8hr2t1hyxNlRii8SGapQpOZJtgyUSpvzhm8/AQXnX9WGChZ?##
?@@5N+60SrwKendBaLI8YVNvvWVdELQ+dke73vpqXJ21Pg3PYa6VlQ5jl5oH+luKzLZxHJW?##
?@@idHwZ5dl8zBWtA1PrCJC9wyPnwcKCWYDWrmn0CfHxYQFaX8sn2BVeAyYr+giKorKq+Z0?##
?@@Hjn1ePJ9rT3wn6uDltiRDRwWZOnfaacIWUq8MzTBaBK28hu+srvNlngwF01RGuNPZsNg?##
?@@w8NEbTML/gm99B1lLa9YK0IbZYyEmhHuPTnm0usL6XeMt+EhBIPQm3WwL4pbqNC+Aw6S?##
?@@hKaRrSg+8knZcXCFySs9cHLjzQK1Te4z7E7wjtPjRoi8M8mPoOE355PZTjuuE6CdoGK6?##
?@@/baXcmP02wI4nsqM+Nzk92g1H+eF93kspyK0h2Bx/dU9zBg9Z/StZ8AMDCBE8FBikjVf?##
?@@5vDggiVH4OqxJYghY7+fSxbnlY3nKTyUbg+5YM2kMLYCKfmF27U5MQ++l/AaoSpy7N82?##
?@@f3sx81carN1TVu7BwE6eYtvIQ31FUaOddl8Yr6y5ZQnjKbiN6JpPFhmmN0f2koHS/Xjl?##
?@@/K2EGlTdVkjUmuVbXdC6lN++v8p1ncgMOsU4txh2ISq9Tth3/BjQG/i3uL/24mjm8Awe?##
?@@rQag1Cnotvmy89wKtvsX8vvng7k7pQamWR3grKWsNipLHvTeQ/ha3Lfrre4tgfhEqxlq?##
?@@PkxYg1H5wTqI42ILwdRWeZNAXe/3+Hx9Zvd00x7uR5riiGNBpAyon6P7mOtrGA3V0kGL?##
?@@p9MtwiHyq7xPDsPfx8inTgxKwe6w2INYn9BqwKvb/rJuuG0tZ0GGCHkzi2pEQDjmCL86?##
?@@3JohDo+cPmHSHQDtGkKc1rmVDX4toGchIEMbNOYbCUBOXaYoBbxmKqe8kJAG8lObd3kH?##
?@@sSnsNj/haf0SofcbLzwL3FTHl/mK00mw03AunPRncAkrssa10PIlB1nWvhHZCUNJPQW5?##
?@@Xl+7j89BeGoYlLkNivmxzRElmJsTgD/or6x+phB/u7uR2ve5f0jNih6Njby+bsYRsHu2?##
?@@Y4obSVf5rpw5myohm/sxBiCo2PjrE5Y8hW1A3e4qWGaZ9at17kp1DogSoodMAuFPJ/ed?##
?@@1FaIS2Zz1eMccd8DN6Bc1L0f/5vL7sL5UpBQhjjs+6TusiXfUi/sq/Rns7qlqjyGEbzY?##
?@@Ecn9+63W4tD6b+eSKFrsqFqzw/HvQvml5Uqha0LGwNCb8yDCrwmugB8WI0l3EacIMDr9?##
?@@PkxYg/XvWHMxbtwQZcdAEmJ8oi1R8IqJq0g/ilDrq1n2dSj9e/VrfYt+bTaWi/zOmnwo?##
?@@M+2Gt/KsYt306PLNXxuRZ+/Uqg9KUw6l3gRvi6nfYd7IlwO6uyKIpJ63iT7z9W6itYhm?##
?@@vIe+Ah6Qz0lDTy/1X5JsjOxgRYWMhIhmPlCNrI3ao48ji0+fRAlV+ZnVT7rx5ajiYHWG?##
?@@+ZRLEXC8KutYQtL/3f7zYD65yqtfBGo/oU+oVzR/kaDw/IYJA40+a5wmsAyw7jePPjCQ?##
?@@9noRB1G/ehusyHA9hfZRX7SpgnOsr7gbRetQNhe9o9uhGfsTFS2HBSyXLuM24q2+Izos?##
?@@T96dYo13jreHcUCKKRxnjI0FFL0VzqeGYkuJ7WQi4sXYyfGSSR+FImtTAhMeO+GpEPiE?##
?@@vIe+Ao+ILQ1Yybv8jdequ5ym/CuuVhbQ4RcmYGqpmuqX/2g/QAFNsQ1u8m4mV6GakITz?##
?@@fWkLQz4pRgZctxWUIfhcvYkkvXSGHvS078ObfX8YkhjiVFQ/KSto51UyZ07D74q/X/sB?##
?@@xt19doqI+Or9b7/u9DF2BZx+5H+LimPeldFM3oThI3LsL0M5LhhxfMkfCUoobYJsb/J5?##
?@@5/nz2rukUCVcDEyTnFBB4dp8XjHEMmW6dXKUJWQBTeoCoXFFvHrvsYZ14phsf80VYeyw?##
?@@8Eaf9brMA/jhGvmSZQSrX4RlpD5HhTw4Jw3QbjS8ECr031da/VIMWbKj46fl+/KgCJDm?##
?@@Ecn9+yAtW/tnA773lGqw01DqacHzAgywObkWD19fnzDN4tMTe/3qAmMZ9alpr1lwOFL6?##
?@@BmorL1XppQozzxmtGNdK91M3i+zjP2PTh/w+kp+PdAbHHPh8YtuhbP3HCb/LjrAROiN8?##
?@@25IOtYnRRTvxBlYLyb8apUh5ly4Jsy7NuKj7WM+eYXLhsWusPXs724rs/k69PED3K83C?##
?@@9GnrV5EJHNEHE3X/yL4o/FwGoeWgzegd1w5oAsgcyLJuRRFq6BvviRvObR+8D+NyxW5u?##
?@@QWaSjVTC4kqJRFqD140CsOHQh+W4PXw4Pas8rgKue9WQZOX36DPWD1KQ38F8K9btAS/F?##
?@@AkjfzVipBPTGwqCACSs8eYUWzyFTpBB0XwwSeyfp/meQYA/JQyX7QxX5BZd9o7h2/hj4?##
?@@zyspkR2r7vhttuPMYP7Nk6dxthcFAUfUAAc+RggQtDdTXJ42fBZ+8sb/ZnjEgu4MPhr4?##
?@@+Is3uDs5nPWYan2C58ycyeOrNrGx9j+Nv6h8/y3ATn1lmLqVrPo7kr52sLxjLZqD5h7O?##
?@@KZfHRLTlA3HaGJkp2TyeSOFdhFkhswcxzoLYpQA9ly21GMIyMez+R165SOz0wRBN2Gss?##
?@@kh6cg8hnvQqpKW7FvWWmNu9DEZK9/f6ys6CR/4OljyF1L+c2Z7D9gVuVqUSh1LmSInyN?##
?@@UwDpw1AYT1qo6HmyIKeegvT+qJwVJ1JH18UP6yomzMXqUCCBKOz3Tm0bhkDi5kD+n/PN?##
?@@FOM3BCDTiPnnRYj3c/MYoZ4jo/3L7zNptbE8Bk3/zML2C1kkmjaM9S/41oVJvX15hhH0?##
?@@nX1uT2HASw25RNe1sSqaSzCN3hENTMgWla76292NrKp4vwwPRNTV8tO0Ln0pniKvTL/l?##
?@@elDSOrtkEe+jUwKfPnVtLn+Cc45pDzqJVcb84Gm/ZvsnoIRbTUTq6LwaTg92aLP6j34X?##
?@@T96dYuj32k50Xeft/n9KbLs67Z+ffUzk8HLaiFOZXt4AsloNerEwvlh530sHhrqBIGOz?##
?@@tEIlP3V9dVB7vJRzG/RcuiCH2oMn+pFeisKO+0Pjo7Qg+h/G2Q48pEJ297suA14k5UqA?##
?@@lTjVjLtIhWlaE4E2IlHL8uYwXuM985AQG1vAIifEjQVZMw0ef5r9nox8bQsGkRET0aU2?##
?@@AkjfzZwRf5QuD9Y13H5r8mLUnImkY+lKsIQTgo3EJrsBiKJSLzE9yvB00IMsnWYwybBM?##
?@@x+aQzlyzTWxMqEvlaK0frFEW/We+yr7E00xPC+78w0/o7jgjm/uUC537i6M2kxNfg+Ul?##
?@@aLV6A/yx6LasOCr/HPz53C6CIX855Td/7JkHAuhiA9rTl0LNvi9i0qDKK6cbqlm8+zx4?##
?@@jfM9yYX92RjzNOg0gbceKB0FnoSlMmQTMw9v5L9oUUfd2nRmu/y9XrG3AhYISjnUI4p8?##
?@@NgfAwdttY42M2LKQmf1e+trQgYi1fPYFsa5WA0VjF/zkh7Pmww94VJkoelajogz8q53J?##
?@@Gx+8bwEiZx/u1fj5f0nJUBOAlFeJzRSEbmKg5IZcojF7QxGS7qMqEmOt1jsrayUKKevA?##
?@@GAWDZZe+2IkSpBXmDH9sYoJZcjYPrNGLBSgcABq5Kp4DEUUplM4f6SZ9wE4p8hoeB6ox?##
?@@xdVqHQzs0s3yMon2fovT50ZJsT7tVcd4ua4v/LG92ARxxSDSMO5zppf9uPUs58jW1Ahy?##
?@@cgs5d0VLtMbO/3hoHBtXx7PRVebcEACFEULBLhN+4NjG5aLmwhmvdpEjBCTvImAAo3Ig?##
?@@ywjcMNgpYCum6mgQI8Azx03rSV86yi5Ua1cIqu0UzUTULWLt8WZjTdu/Bvy2fwJ1IR6K?##
?@@ADe5HbwsOEHMYEGjlJ0vb2varZyXtDmcJ1QrW8+o91r5Gmuq1mqIUbOZ5oUvdxQ14Xcf?##
?@@lTjVjF7T6imoASQo5rwCFg1OUfAhu6SVu8OqyDeCnCYiwIqJfnTVWNaTR1d9OdaNHy5t?##
?@@asagtIcnogFi1FqI7zbMszHdUGUkigoVIbdg1qnehsnDg/LptqxK2hvPY/X3Pj5bTqGw?##
?@@q/V5JK+YTeGAVwBxI60xUR5uQ0h1cZuuxAr2gDJTxdItZhgjXCRhd4gF4X7JdDOqPT0i?##
?@@SKIX9/OY7GstlIsgbdrUR+ATHLObMtwWuvme+ogzUdnUrxUC/jBTtN7nqpqTwjA62Oq8?##
?@@gYxYpEMq90Z7DqINVl0fZCEipdod95WMpHPMvbq0TS/3bjepHeuaOskM8FvWby1qgRNB?##
?@@7jV5RBbeK0/FDiQx3FlDdFdupzoQob17Hxr/zXuDSxWs4c0Bo0FA4k1ztQ5zokiassna?##
?@@F/xwDRVoMBCVM7YZRe0UEUitfgmOlem/Bpg+lT1/fjNYMFeSX+8P55X+GhtQDUNGE2si?##
?@@cPoTxkIrWyR04Rd20JOF/b1dLNq7vlGqO7SG7WR3R2YNaFr0ER6Ea2+I1fKeCDw6bMrq?##
?@@jfM9yQ94wpQQQrUdSq7utjs9tfnl1vtp0yPC67CawtH27EJyy05ZK+lHNbZteXKnbY6m?##
?@@YoEI8XdQQWwx16SCGtJr7cUqjaqqF5oSz/FVJ6nBXhdHU/Y4tuSXqWCDuodiFh5d0CAc?##
?@@w8NEbcifvNh5wwjEyD4SiEHU7PUv+aVwPPmU6i5Pef7ji3V8xSfwCC4QxK5M02ziZ4nX?##
?@@TMRkWU3bI2aurZiZ/MSMiMB14wapj7t9GTOwxbUccj0AcTTNE6sdONA1N8gOWccbeSOQ?##
?@@tUs4l6CiLh6PkCEhGVuOyowoXzfsq1M6l72PCEPrfSO6QT2dRspKW/h0d5LLj6yxAuIo?##
?@@PkxYg/YtKTGdvPP6jVydWonmvW57tTccLE7dhhrKv6MJBqnaBC3iXvK2E1wJwrBQyzx0?##
?@@t1xeSPs0eZ0Nqy4YnyDoprR34SN2nuChgDZ1oXC3OYLBj/DdGCyWxNUd+zHzrJGegeoO?##
?@@1FaISwylb0tbBtO0HNiPYaKoJnHu8EnAWw5vl4ul4+jcIoSVO010xwie3tfPJNBTRkhG?##
?@@pcEHEo+5Cg7BDDGSj88w2iqhLw9H6n6b2xMn+gtd+gzr1TIKe5k2szDkgGYbQJO0LJbM?##
?@@kh6cg5OD7Z4MgJY9elxFaH1mbrXhlk63rQmgyOXXgaUohUQkSljifkRW0xax0CjrfaUp?##
?@@g51+VU/bgM2IDbjxVqRd6dk5lyS0fDU751lwqh92AQ3/muQynsqD99km3mPqSlyOdn6Q?##
?@@IEocKMYuEObqmKduI5WXdPnjidvocGYo16CXqjW1Gj5fCASoAi/bSD5VhAbavX+jpvGf?##
?@@BWIY1pG2gKeCdgvn9I1qktmG1aYyBwxebLyL2NIvKMPkU+52AAmxMa2CjocDt0yx0r1C?##
?@@TtWKCVNdmhKbK3KQSRd11PzAomVzB14fwP2I19lliFhjwcRWF99zZ2rfd0yoddt0XvI9?##
?@@cxNMz/KDt9F2WtoJ9X/RuKAF9IUVE6F/EuNbW1MyAlCwArCtmzIfDJAQ6i9/2WjtRUtZ?##
?@@1FaIS6q/CtGABTNGaA50KKr+epUBTN8Gx1MFlaeVkjmLZM7j1MehSbgU6GluPPbytsDd?##
?@@lTjVjJvXDSSAvxtKqBCjMsosXUPbEChJECcU4Bhz5ZaW8+fY/0Q4GZBXlsE1NN6Qbz88?##
?@@KqDbnP4ImiIEi319hjg4O8LqGt+1wkXyz9dHzXz1JQZb/8MaGW0Yra2nK4uff3KzcYhI?##
?@@J4ahk8uw/wTlVlYQUwEN35Kv7IDI6ENuBzEyL+j93gdVa84itH7te9kaYGvaO63BuCM4?##
?@@5N+60e3qPwcNvvNJVlnFhPY4KiORaNbBKtlIz/Gd9y6sOyJlUTiHfQA/Qz8i2RT8/CIF?##
?@@CYRlOO3cVMcio8HsnBjwwKdPd0P0JgPuRTo6C1LRZwyM5KPKZUzvqy1v/JHKDr3a3W/7?##
?@@wrswFJPv52b6W1+CpSHHOzG5F/NybZOgkCyDejs4I94AGT6zgFge+VX1Ltw5EbvMW2Gi?##
?@@m2tInstpT1SfaJAmIMzeYAwZ7ORpv2H2SBVK1au+Al/Y89W7k5zSwNYcy7nUAeNud3EA?##
?@@OBjmcd5kXb/qgstcbBc4cRFXwupU/EtIgW+07IxvUoGJP7zuYg88vP6SoSz44ATnk2+8?##
?@@zRkC4JZLnw9R7E6BT/LDjyGhgvcDx6Rk5TADGr/iaQtAZAB/omASgR1j+FvvEG/vGgFp?##
?@@RpDxRskvA+0xR+n4Bxkfeqyjs6HUEPf5IBXOSpTQxk8Tw+vFfhRcFOCaViXHoGjTPtYO?##
?@@F/xwDeftQgvFR7pnAbhUmnzLW2VKWWOf3y3P9MnK1IIUZGSvu+vhYVGwNYJi56yK0gnu?##
?@@cPoTxqLzNWtDB5uYc1q5ntPtmDgLtTbkosFCSwKXwR1l7DpM6Skfm9FPL1XTcd8KQKel?##
?@@qeRTc1JyjzwPnWtGVHAg9er8b6WeA6VR1eQ3c8uKui2c+GhrWP7chln89V1Yrvp6QGUV?##
?@@MuVzX0vWdwOcyEJa01fDs2wGocLgjxWEUTZ6+/j7G1/TyXoRWPQ9QhRju++Tg0oo4g4r?##
?@@b/EAbrDFZz/USLllHdA31jZwisXA5TCYBEVUmAVH+qGy+2g6r4uECODGMpiV/IvT1RlO?##
?@@7CRSlDCoWXxMY98AUAg5aSZpklkdzrKdMdT/6bVkL6cVzUDfuSZ2atJFb/UPPxYLDVeV?##
?@@sSnsNlwoc8hsN8sKKXrxKj7DmhJjaY1SaSbl9k7m7nrg3LBCFlmoLR6MOoI9TIlNXyTY?##
?@@jvxQIfzH0MwQZ1Hm7OEgGiCoG9TlS6fILDJUUoO3VBhinEEmt+vd9XOp922SWeJFQd1f?##
?@@NxDTGSokbYpCroxopzZKZaJhLvPHvzWucd7yAPRgY0CMPS76/213dXCBQ4vrlZhbFYni?##
?@@9GnrV8qk+2TxtODbXtmdiH04x3LfaLPv2yKUePEr2aNL78A7v7S0Z9jo7mLtQwfJWNuJ?##
?@@vZDRWivAPjBsYxoxJb3zPjoJybCbSWqXHTCPuVDZbTVto7TZ5AFLAlQj4xg6VA3VeCK9?##
?@@6hMs40kR9H74LlXfDbDhsIxhQVjgEB/ouT3/xGyuRcbXQkKQnsSOB4qXx6zlgV38KL60?##
?@@h7/KtvS4oJgcvlE9nCSzVPt45DwwipnGw6j24WCrIAIEgVXkiMj80mynvkV7DU73hN+D?##
?@@+Is3uJomElkV63tZ+jCK71vjSCLb/Tj7As1QdUpACkdi+Pe+HW7+tINOmeRzC50hQ485?##
?@@kRWJKoYB9GHCwekw1MwXK3O2xbrYzswZz7iB+xHHszeC7YXwk8adAPGpvg5MQV4eV/IZ?##
?@@LsIn/qeRdnlB6eL69arkclE4+WGbC8Gqz+btKTQeKUKOdlQoN64fuEAilsy5CdjbtYBJ?##
?@@ywjcMGnFGbPPSUiAKLmD5uN09rXKMgf6WgcvRCl3qUDCjB9vO9oVYO7ZQoy9W5YMLTHY?##
?@@8Eaf9SL8NIO5peEjxzQavZ/MSaMKmsF6hDA/bvXz7TZ7uwSqMSVn5JRV36CWxi/qH+IV?##
?@@Ecn9+81sNs5uCVnHTSzT2VHvK//f1ss4u1wC+3YhoHyVSeay2M3D50ZLAvdXSaLs90b/?##
?@@+pxeaXtX9F12Hb0ciKzU9n+PXn325nTKf2uj+vEN38wlp6Na2YpZiXYh8X8X4WBdhcP5?##
?@@L8s6VtVflyommej6LV8JL6VEn2CXJpqHtcvEH6I4xyYyCglX8d3CnAja0Td2p/VH8I6B?##
?@@kA120iDq2sNEUhBoGbbHliov2pdnAo3OrAKNZx4T5PynpwvvBGXGNK8FBUY63pWpyqBS?##
?@@rQag1DZEX78va1A/+Oc3H78qpZR4U/E7xcWT2AYxAedOoy8pY8UYHoZOZiJrXEjnp/r3?##
?@@EtEQU5ITPHmRLxDGY9/e8TQXC5z2Gq5gDOrAfiql9vBI5zh5H0Ou4Q+XKigYRFniobMK?##
?@@m2tIniOiWm2T8DeBjYGns0NKeZaknPTcQp6RJ3x9Iyjjh+J1j6hAGG2LV0G+u8kFfVMm?##
?@@qNtAGycMY94l3KIiEuOVlpXPP+LgixthWtXm150IAcvp+geFHyLh7N63p+N1CZRB6REC?##
?@@wbIdvDSfEJS1+NuOs1c1ktFDsTSiPxgzdpmiFC6dXe3N71MDdyfA94/WadFCHcwPmijh?##
?@@9noRByR0iTOAVuWBx1TRgs2UYtv5Z9K/aSmjMOzMz15nSF/G/w42AXvZRNN/jLdUPvuJ?##
?@@E9ojrKovsELU/5RCcpQ40AJv2as81pn4/lyPxcGZiIUPTa3XTQeGkL/EmZfeC+8kQdcT?##
?@@ADe5HRPbaXZJ223qtZK2jnqNLXAdSI+EuBq/QdaI92VG0BIUC7mgfDmX6A3WwwBZ5zsg?##
?@@AT/MdU21Mx0K4f7AJOS1hngo9fmq32JNOcio6+7pNva0cVZFMxaT6kESYUTPpOHyQhNf?##
?@@FvRdteuDvLfkjMsRHKRvIOO5I+BNTKhJhwTyVHHKI7wJGmMRFyQFB8DI3KW5Qt1NQGod?##
?@@W0WChjEirIfDKPTSKiXFLsx2V9QTGGAGczhZLClkrprPKh4wlt56ddFxHTj+cJCYrD0a?##
?@@SKIX9/EkNo/OQwwLWtXzNAcbhPUYYG7nOOo1lYD+G/0acpXQa7cS/Wrw8GGRPXLC+gVJ?##
?@@dSVygPXwqP0IDrAOQCWoOKDJmXKm+ho8luua+uEe/BY0dZhdkFYBjyx3h/Jx3lzwuTjR?##
?@@MuVzX3VZxtBIcVlloKB+lCM9YmPslrZ6Fjp1hiw9CW4y0BJOSRPU3T5TPYH+KXUhUa4x?##
?@@jwRjecBcOOZvLX4XIPYoJ/fVCAM51hVwaQabx5JNLlxrJRXVW19ao5hOTaYaaW0F5ZTV?##
?@@WCtJfTjVAKJ83VyHU4tmxfXEIDxXBWThwIOGAPiEFQakU3RSMoGtkcNYXig38JKaFulp?##
?@@Ecn9+7alRww2NfFCgu6Nsydt6Yq4kY8PWuoeX3ZDtQa2pYpn/paHT3INPFxjrs2GBZIq?##
?@@/r+qyi7UhBIa9/+twSi/KpEEQYqd2DjQr5f6K50Qe6sazkH3RVoFw79dP15rcehsJrBu?##
?@@5/nz2tdJnA8lkeqrOuJIZzuD3viVvnBF5bMcAWnUZyjEtCtjsJDeBEGDml3zS6UFwniZ?##
?@@vIe+AsvvLaLBFVvZSe7GvW6PQSoVgqVqWmo3gzhMZJnyu4H0Nc3ht5PfxXzYKTfpstWS?##
?@@vZDRWvit6ZyFfAYg7QdotINb6AjYBQ4wv0j0Epk7dVVtBThoXzuMs3x/n23/PtNkm82A?##
?@@gpRr/eJaL18wHKHNEg4rbmbZOrbjX0CkL4owVa1Y8f5QWgSgEIDLdYL//TUJsbCr5fi2?##
?@@94IkYKnXSEyoj6noOszl01szj84UfxLt0qUlEzUbMf+I9H+iFCtp4SVLz1fFiN+YpxHC?##
?@@kA120lTUEvGRNfKlWGdRcjDSX8ambvLJduF9YFM0G4U/Y+bO6Ad8DqTizIoixxtjiays?##
?@@tUs4lwEtlYi0HD15e2F71VhZvj5HY7yROIL9uxKaojxkdkNoehCC15jrFkb8/6887qiQ?##
?@@TtWKCb9vqA55RIhJ4BVeVBkv799dQvc5y2uu1udl/bAc3QrAdlZT4jZAHm1omw7Spg8Q?##
?@@OzIfenmKDr+/xJq5ORJvWjIXafI5wi4I9HBOlNt6MpB9LmRAxIPoc2dbQ9V8axYFJnzr?##
?@@qNtAG7jdpTSavGkrSdKsXpu1aYl24WDzlX7p9zckrPcHcHYA8ZXk3bJl3UjnqnrlbBnR?##
?@@IVIvgTKYvX0PnM8vWla1kD4hMnU0dEVIh7SNZJIUBHUqRHJmSrOuZcNlmIfyEfX6SeOn?##
?@@SrM+qJYbIuYM/tiMf04baSsH87HT1+dIrB1uXgdDGnpG4zlwh+Q6R/fx4w6c9P1/kWHb?##
?@@u3+rqsKZpzqYhOuSKKb7KKHFRant4JNcZJvzBJMHRvha9KnCjsyhW8nMrdjliFHONUtm?##
?@@/K2EGtgxh44QHsuMhdhreQjK+NRxP3Snsuxq7YEBiAsQ6aGVz0thaE685c1Ly9vNh6Tc?##
?@@gYxYpIiHI8EvW6Y2PN8c3LwOos//njHXOh7HBru4rqm+5J+QbqhR1ht+SSHvKZpE4nNF?##
?@@FvRdtfcxBehZdcdEcXhKJg5eH45UdvVsuMjbaq7TKJAmdvKi2wOc2UgFBbDhl1m+T3pL?##
?@@P1Rs3Ir6w7w2F5m8zCt59hxnugfUZtyUnMZBOmRR8+ZrqqFM9lGwINqiP2OC5YNHwsiY?##
?@@pLn0ufWf22VPXstIahJHfNpDLB/rKjKYYB2YYhgqn9HIA/qAO0vy00hskgkixWn8qh/o?##
?@@RYje7kwGe9M2uUMbxlyWuvgnV7zS5YDXJwKfssAI24HFwciU4ZqlgxBzjxOOMzm3KxPW?##
?@@di2G2F2ykbU2NOidIR/Nh29VT2Fs3hO2jc1oXQCG1mNKIBV1+WEsqYMy3qlZ0VA5d0oO?##
?@@25IOtcM9r637Lk2Ixm03Bb6+MT1RDLMefLjeTFktB9y68nk/gWSRIJgzuI0L3HTSzdio?##
?@@qNtAG+ICTdJzKJtyfyAcdvrH7v0a2E9Rh1vCSyd+Jx4yzugv2p09FQ8gWNOaRB7/3doT?##
?@@yfe2f5zg9KOwOfXPf9bfzc5c9cDIlYviszHh75pfFBzI02nxT/qSNPgKmborclHkMDMJ?##
?@@TtWKCckBhBWFSwGj3678R1HEJGvDvsbjZy6wkPe1qjZbA/ZJ/29hV3SiO8wRytcEyoq+?##
?@@Z6xnq2x/jWJx61KApW892n3G9TUkFjaiG4XRsS5VUlnygxUEpIcJDF2fv6OqRtZcWYde?##
?@@mFIPlUtWG6B487RNepXq8ymmrYV3ydTGkvYfaQVpNauUKN1larK3pzO8Kk23U28+Q8vy?##
?@@wbIdvDF7msq/SIzLgY79gSHcoPYgGPN/mzD9XtLTrs4b2ShgbSoJ4lZoocKIBu0jFrQz?##
?@@quxmy78yrac7HL2M67qWjiTG1orjou1MmIqinFlmXC4zBnhSr7kUQ8UHw4aZGcf0D1od?##
?@@C5WL6carG42EJwiwbWBdSRcGR7zChg27GqOmKeQrQc6BnwTQ3AWnZJhoQ9KZSpbZC+O8?##
?@@XE6V38DjX98QTTynDL1AvrtCU8X0ljqD8nE85XPHCdLe8eZ+cb8ZGFIgWqR15p7on2pP?##
?@@mVoi7TC2ZuDUV5/Bgd2zrwFfZNsmn8X9nTb0i4yrgRC4R0DQOQNemE8vMtjHDXytkeXL?##
?@@SrM+qIxkiMJpfDk2o1xicfnmdBjyuDuUjG/nYYc83JqcdnhWHUc5jDwHrIE5oQLn0sFD?##
?@@R5kEn1gscxWcNc4ishR7LnZsapRDyNrtTf5I59y7f5b8eip5+yeLP4gecgkC3Txn6hWa?##
?@@lC/CM3TILBmn1/7GTAErJdA4lZhXODOxt95MxCl+HIBt9XCVhadJSjyiJgAYoJSrNdNS?##
?@@fWkLQ7SJNhwVHmxXMbc+K5chivCLG8/A3T/IIo0zCUTPbsql7sXiZ+cwfw3365AaA3Ud?##
?@@4s6TIIJXqH47Hqjq93ZFy5Vm0mheDAk358nRVRYi7nUCXkzS8ZmWAV/7KOUIwJtqWvse?##
?@@i+IWGBrqn2q+IWo3ERXuThCzy+yyBD+cxxdTznB2eQTQc43v4KjYuYGiBYPCBe+IWSav?##
?@@aLV6AwVXBrTWuVJ/FJoC4doOCOkexaUnazMXX7/UP89rBu4+Six/GCpkUJMRdto3RpZ+?##
?@@uW2F+Yjcq3L5NSZqTgrHy6+hYRz7cS61Hzf2XqvpnTWLQbjZrUfTRQviV9pB9hIjCvrW?##
?@@elDSOrmVPCfnsKnBKTqI7JYacMSVUCwNlrSk4qxrbPy+NSz38chwMUg6i1/PO0+z20CC?##
?@@M+2Gt6Tt7abFAtOEQ1jVG743mbKMekK74Z3En+XrcpLnls0djgvAHIalHo+DOn46BHty?##
?@@9GnrV/Jidpg+jmBn3+hQXfKwsFJSvvfbGFeHLGNiuHztoepbdSfT080zu1iRgpIUbJ5K?##
?@@7Sxl7HR/ElRUWhE8PL/3t+6Aw2Ntno0nzHVViCVNjXqxZjkwSkC8VYiPi0QUra4EcVw4?##
?@@oqjOCGfTp1Bf9JUgUSSbkdyvpPEyK5k59cahqvOpjIbq1+JC8A03Ot3tGwEwCx29Iw4f?##
?@@82DY/g3UfxBbFM/maeSWe+5v385MKJx7nY6+vEHU/IXQFyfMdzx8nkKG3YRA5aBWUL7K?##
?@@DJ6eQVz9IvsJHEDSYd8mTN6XHuQ4EglnrL/lquoC/pSk1t1gMZJUjTsrS2QDwk+GXvDi?##
?@@3aM0ZlhNUfI6atBciSzQRBgfMVSvj1CNO4/OXP2C2ViToYzSqlNCG7sl0yhRlL3oEBCg?##
?@@Qm6l5Qu4L6AwegWe6aH6xyowpl84MGsjmq4+rfD4F4TFm5uY0WMPLvkgY2BUmXxZQDek?##
?@@m2tInsxCy5dMeI30+tzM4uvycFbdcpJpviaHWTpZYXuX2de63x5+fsGHOs/3W6P2QNCS?##
?@@DJ6eQaIJpeH9WveqJ7DvBznHlwK4AO1hJXGBxNcvCsek9Fal4JCv+AdH5NFtrJ0VP49A?##
?@@pcEHElgdzgxu3jRZElwpWsoSaXYxL0jqTCXbSUQr2bI9RI8VyMH7dsZBq4j6ZLEr2P4R?##
?@@Xl+7j2SmTo0mdTENOjXD/ZL2N7v0kHk0wvVelSnP+A32YKgyWSP+a09BeMvPsJU+/rbx?##
?@@jwRjeV0OWrK3xpCik6RJJ9Uk91ak5zwX+TxpSsLxh6WgMFOswhNr8xoU4C3LAByGcKZh?##
?@@RH/LlnpKexivalT11t7iQG9CVmVYamZrcIEDgTR32cZcfbMj9TYuKYGot1SiOje2tmZu?##
?@@4cWAyGDoxxGNKRwiE0KyvUMSuEI3o8CABvyUFZxDgHvKuWXX/gbQRYwo2sjZoOm2gOl/?##
?@@VhojzJtq+cMYh4nkWZQ2KiV97PvUjMWusVJURAVkJecFvfZpx5WAAhQvsJmmLXWJysW6?##
?@@49aneKLXuXaspENrRRxtANRN1+xKR5+WhlUNXk/+18QoNI2PfZX15oY13csMfdlFxbUC?##
?@@hKaRrbIAA/Wu8lpq/L6Kng0QZ7bz/jEoenRq+q0hp3OrZtsxTnlTbOFDJPDoL5VM0gvB?##
?@@wbIdvAq2uQTuL9NHjfTYvb+8850HwULh172wU3JnGDMc5W5NnaRdtfmWq+NgD7d5G11m?##
?@@quxmy/f9CbjNb0FhM0iILFXhkX9zCa8SbnuTPTJ1Y/UlQDLHR+nawJ+WgwENi+p/87IV?##
?@@00118z9q83FZ1dkjfrMPZNVU36XxXkn0FFPQTsci7UMX4CF8U8mnhOn0oqTSMXmnXb9e?##
?@@lC/CM/NBl4m5B5WA5YJ+b+lL2qVg//tq7wMS7azs+9I417zEQoW1cWlXEPphBb9k9j9C?##
?@@XVaoN7Os2EVLOs4poT86EVzoDihaaTkxY8E2HJJmov85lresnEZccb8whbAnf3sZ6M/r?##
?@@LsIn/p44ZXMmozKq94fw1+PXUQYat6HSTqtaOErXmldAowCuL8Mkm/738bSXFcTGwSuM?##
?@@v6H3C90pLvQWh63w43doHqAIHCXSROEArLA17tVSzjqtlNXUlSLiWEigHBrHtfZoIQhy?##
?@@iMjdDxuK8RIr0bXFudToJ2GUrODjYAZ9jWX6mU+675Vs09tLJHPfBO0cLGI3weqIAUB6?##