* C:\Users\User\Desktop\Engineering project hardware\DC-DC_Converter_Tester_Hardware\Symulacje\MP9928\Moje_symulacje\MP9928_SteadyState.sxsch
.ac DEC 25 1k 1Meg
.options PSP_NPT=10001 POP_ITRMAX=20 POP_OUTPUT_CYCLES=5 SNAPSHOT_INTVL=0 MIN_AVG_TOPOLOGY_DUR=1a
+ AVG_TOPOLOGY_DUR_MEASUREMENT_WINDOW=128
.pop  TRIG_GATE=X1.!D_CYCLE  TRIG_COND=0_TO_1  MAX_PERIOD=1m  CONVERGENCE=10f  CYCLES_BEFORE_LAUNCH=500
+  TD_RUN_AFTER_POP_FAILS=-1
.tran 10m 0
C1 28 0 10p IC=0
C2 30 31 22n IC=0
CBST 13 11 100n IC=0
X$CIN 9 0 ELEC_CAP_L13$1
X$COUTX 20 0 ELEC_CAP_L13$2
X$COUTY 20 0 ELEC_CAP_L13$3
CSS 29 0 10n IC=1.2
V$IPROBE11 18 19 0.0
.PRINT I(V$IPROBE11)
.GRAPH IPROBE11#P axisType="auto" persistence=1 graphName="OUT" curveLabel="I_LOUT"
+ analysis="tran|pop" xLog="auto" yLog="lin" colour=43520  nowarn=true' GUID="89bdd54b-5851-4357-894d-1298b10b92ab"
+ disabled=false 
V$IPROBE9 20 21 0.0
.PRINT I(V$IPROBE9)
.GRAPH IPROBE9#P axisType="auto" persistence=1 graphName="OUT" curveLabel="ILOAD"
+ analysis="tran|pop" xLog="auto" yLog="lin"  nowarn=true' GUID="ac4b98a7-cfb8-4bcc-a17a-11c9e1ea2cc0"
+ disabled=false 
X$LOUT 11 18 LOUT$TP_LOSSYL$4
.PRINT V(30)
.GRAPH :30 axisType="auto" persistence=-1 graphName="IC" curveLabel="COMP" analysis="tran|pop"
+ xLog="auto" yLog="auto"  nowarn=true' GUID="17f2ddbc-69aa-469a-93fa-e44c6f7e8052"
+ disabled=false PROBEREF=Probe1  
.PRINT V(28)
.GRAPH :28 axisType="auto" persistence=1 graphName="IC" curveLabel="VFB" analysis="tran|pop"
+ xLog="auto" yLog="auto"  nowarn=true' GUID="92685c8e-aee2-4e95-b8ab-702c2f2d01b7"
+ disabled=false PROBEREF=Probe11  
.PRINT V(20)
.GRAPH :20 axisType="grid" persistence=1 graphName="OUT" curveLabel="VOUT" analysis="tran|pop"
+ xLog="auto" yLog="auto" colour=16777045  nowarn=true' GUID="7020aabc-35cb-4cdb-9bc9-9883d58dce27"
+ disabled=false PROBEREF=Probe14  
.PRINT V(20)
.PRINT V(25)
.GRAPH "db(:20/:25)" Curvelabel="Gain" nowarn=true yunit="dB" complete=True analysis="ac"
+ axisname=bodemag ylog=lin  persistence=0
.GRAPH "ph(:20/:25)" Curvelabel="Phase" nowarn=true yunit="degrees" complete=True
+ analysis="ac"  axisname=bodephase ylog=lin  persistence=0
X$Q1 9 15 11 PWR_NMOS_SPICE_V2$5
X$Q2 11 23 0 PWR_NMOS_SPICE_V2$6
R1 20 19 1m
R2 13 10 0
R3 28 32 3.303k
R4 17 0 40k
REN 14 9 100k
RFB 0 28 1.268k
RFB1 0 31 51k
RFREQ 16 0 399k
RFT 25 28 22k
RLOAD 21 0 6.5
RPG 26 27 100k
X$U1 9 10 11 28 29 14 0 30 17 26 27 0 15 23 16 22 19 20 MP9928
V1 24 0 24
V2 32 0 0
VAC 25 20 AC 1 0
R$VINESR 9 24 1m
X1 11 12 PERIODIC_OP$7
.subckt PERIODIC_OP$7  1 3
.NODE_MAP IN 1
.NODE_MAP OUT 3
!D_CYCLE 3 0 1 302 M1M IC=0
VREF 302 0 DC 0.2
.MODEL M1M COMP RIN=10MEG ROUT=50 VOL=0 VOH=5  HYSTWD=0.05 DELAY=0
.ends PERIODIC_OP$7

?@@--START ENCRYPTION: "MP9928"
?@@AT+zcvR+JDnFMmyeY0/1e95eHWszQwatvhtOo7yMd6hocUN8KydiQO2ySDAH3Yf6mI8l?##
?@@vpjLr7ctEdK6RizveEd+8Xsl3EJOKnF4bSNRZqUA3WfnFXOfp2HCLMvpPkuud3qscPJ6?##
?@@X2ev5vRai5x6zFBlVEmpfLILLjUIxWRmaHtzRFLI8IIACKe1JFh+3jD30Mm5k7tdwaF9?##
?@@9GnrV/WOfYblZbisgffugaYCk1KEXYFA+ulaFcdXDlM/tApZAA1cu2CmqSWBdDHkYnXM?##
?@@Ecn9+50SVsv8RshQ4mClMDLwxg2DECRn0p3zdHmGsDCJ/Zp62tf3NuQkOEhmx6FB7YRf?##
?@@1meu/OVvjQ15Ds517BuFzLUtvZzE5CyGhtIZulYDfLvaQrrdBVTWX9Lb8BJMME/Gzpoz?##
?@@I2RVMevvPxYM0mIUSCYjW3tWoNKvTpCu0GiQeC8G30ARa+kapBcyjx9OdRxg6/l4LNEl?##
?@@JGxoiuQnSfBKZYZW1SCUwJe2a5qzZTtZy1HykUEaCtvm23mX+05jvLjlJupqtIRinKYG?##
?@@LboUpSsm2hSZCS4adqa/DhUyaw79vsyc+cKB5gYSb92VPtQmZnlz0+9yJuV9Sx3/btxu?##
?@@tlRL8KVweqSxmOB041JFaONwRN5oiOebSVmxSFRe5B/CIutdRuilAZhh/fSp29FqX3cd?##
?@@u3+rqlYwd68A2tgKf31ylc80TEDIQj9+xyHRzBG9prbZwptBh0k8PAso48vP+rNIZ1xQ?##
?@@KI+0666QdLSMuPuHmQLg9nYHftB+rTP6+8MnXX1amKNpIWvq++ECpcxDApJGntilM6Uq?##
?@@DaaxmWcmTIFxsaYTvq6i9EBoyrRlzORM0cEr0+gghA/UgSm2Pv+MH1Ho40PlcoDKhGYA?##
?@@mmM1Ra5jKPj5U5MmTAVTlT5kQPWz9Yo+CZC99vwPgcCWW4WKX54ubmPmgKxL9djeufD0?##
?@@7z6MnbO0Iu26CBwNHAbxDgqdDBapiQZPVtsR6LZPu4Thh+vr13mrj5cAwdFvmJJnd3XT?##
?@@UOawuiCQHYoZugWjskabBG2xfb3DlT8sRKc8bUgxrqVPigneEOMYyg8A759c7+UQHx++?##
?@@6QoZixd2Mv/CVFqb/svvV5XPoJ00Yf9U4hOVDpEpfvtmJJaDl09nv9PkMQIFu/WqRmMa?##
?@@RpDxRv6OVz5oGy4DQB7Ep+Z810dzDJSgUWk3orFmdcAekrdJSfCljRjo0h2kaHISIiSE?##
?@@C5WL6caq8Znn5FTQH1a0COoVXnGCc8qxwHnU4YAz0snU8zJI3BKKxdsRQ4iDvDJGSA7k?##
?@@bNfHZEe0fhyzmqIp23Gg6EP3IfzaFk1vsK5SfQNocYpn36nyBQ4eMTEV7CJrV01I9xoM?##
?@@uW2F+R/dbfHOe9gvtFkHvSmH+nsmGqJ64MuVp1CLaFx3VsLQ8bEhmgKGUCdTgHkB79Wd?##
?@@AkjfzUNwHMA4Uojoo1h5R9hNRCYHwkbTmQPyw0FwCvknGQYpVb6r4K8SUwt7crDNr9a9?##
?@@rxfGhfo3cy455DO/9mvCfFyEXnX2Z/5WOD7lECbhZHq/WZu3zzJtOyJhQKDNN6MHAcp+?##
?@@DJ6eQYgdzjDBzdCJi1+eyvp0P3fBwbcCBThpyFgS0PrtZgEk8m4+x+EuQeT1I3ljLZ+F?##
?@@lTjVjBWIDnR2z1vVB9ZEACUqqPpsAk1sgS2Eytq4K+vQBXI9ZHEgf3QGkYuXB1i2ni3h?##
?@@di2G2JsDgO60jTtU6Fb0oCY0wOjpeKcntK1y76U7lqpVbfTcwFssWphjFg6Np4ugfTOG?##
?@@A1DyJlAfxVA44J120XJzDEyfhVvx/g36EfW99dwpxumeD5/aOzg1l6oUsGjVENOYlyZx?##
?@@tEIlP+hbD1ZEyUAb5rI9nqnNke1zJNUSLsdoy4fVojyXB31hyJ5AebME1MyXOuC7cdPq?##
?@@ha6kBuP8mDrWIeoTAaflrrd+bIWt9GaYpEA8v/IBwpQKJzAgQTc9xnW8FOVG9aKOqpdz?##
?@@YoEI8c4z6pGZDhtFShr6jWDqEP8hNy78j+tpbTSqm0K3fAerjaxMFVY5GNC92rv9UuhJ?##
?@@v6H3C2LmRTapD6DUawB07Yfw3WWCy8oC/DdxiyCXUzkCGyv6D9o9nDkkfFeyD+hpjW6f?##
?@@BFkFfpbtSU7Evn3xvPQrTizOlubvgTTtR5Q1EwACk4SdiC2WYFcnDDYXjq+HSMeJLAU2?##
?@@GQ6Wvp6M9diANjejVQtNPFaeXVCTLD4dnUq5qYiWq4iKNeqvZ74Kc7ZqE7h6uAPnKsfG?##
?@@3qtHv/rCcCzfpD1cgeAe3eltvtzRI/7N7k05AC4QXrYcFYamEAPKXbEb6LVVUtE2DVYt?##
?@@Gx+8b5zjBZniXBONvZkqiL5ZYgw6ClWAjlZI7OzVcVulRvNcSDkIbJARihfGWznuX/+8?##
?@@JGxoirP+8IB8RRr78BmnZRQRHOY8oZfP9siS+u15O0KkxAx+oNjFmQ0R8DEe1bI1Rmu1?##
?@@OSH5yqoNFX/XS8a2OH04vITjQPVnXMms6n0/jSXzvWVQnevnUB5DEx4k+7KjvDEFpkqT?##
?@@jvxQIWnrVsTQo7C0GBGjoKZKPmF0IREVgIy9YGkDM+gwlOm+KaTHfW9q/vTd7BKVo73R?##
?@@cxNMz2bOrDlzzhVSm4quwqPTiZwZGGb7lFiTY4EI2Z/mdMUsFCN8ErkRHiN60XijvWgE?##
?@@lC/CM8/+rwe0Kv+DVYS4lERuL/sXRdO1ukYz6M1SYdPIrRUkLvp2xw9/AW22WeBbGilf?##
?@@ha6kBiINZJRVWWH0bZKak1AtkgWuP7HWzpTEreiUc5CenPWg6fOc54+/IuTT3xHOlInz?##
?@@AkjfzRPcwKmY39NdDHkLZMgr0bJIUNFWHkGl53LOcTtGke1ieFwIOF5Ci8eFpgn5+jsm?##
?@@F/xwDQ9LjggOOBs2GHRPTRajIhrf4HtFNvGfxWujWYTMfHkKSN3dc7rpHvLGqXeSJry+?##
?@@xMxXxVpZ2mCCt/ozRF9pFA4QXX5XcPh0rRj2EtA+uksamNf3px1Pn6bVXnFtPbE60laH?##
?@@wbIdvHHefhSLqO/EA9oopoIzUvcvNDCmKabqT7fEJScU6BMVPuEVxs1I+ev5lIp2HZNZ?##
?@@hre3XjUqfEvALZBkiRbi/ojQwo9jZdBitVds5XSDApkIpYKbLZr8ObMAd1jf9Lnqky1R?##
?@@cxNMz3vuczspnVe3ce8Sh5qrT6ukFzUV9rSYEfrB8ftqUeBaeFJB4yUaUSzT7mBou7Mn?##
?@@EMDqol8xRulF6CcPnomfb4Er24CfitpT95FAg6HLW23KD6oMhSHrveK0e3Co31n+wVnb?##
?@@beDavQ7v2DK8q6bmucxlhi8rMqEhNQVHqALRnBUJoA5vwqUnQNA/93KHhA3G+PfVt2GV?##
?@@unaYUV++3bOC8p47Ys9sdsuQdu+71JlhC8YlvxKX6qKGcXUssRkaUttaGzC/VzHSgVG6?##
?@@F/xwDScoUYKPUc7q9WmQAIGNdDEczglJ+vIhPOtXkgx6iLQdY2ODq2ADaJklDSGsY8I2?##
?@@LLEBTQEjWu+Y44b1ETuORblGQlvdueU5Nqp2RQxzUKq/m/5wWA5BRQHFREYd69WzxJXo?##
?@@XVaoN6U6UtBOyE/kSbYNUhLkTW6sFRvZWTOHwfIOAmDY+VW+MkbPd+FAtDoyX3DSiy11?##
?@@/r+qytw5vrWeIvdttbZUW5+W3c8T/CoJDS8gQly6eRob07kJgJy0hcpOAtqD/eyrqVrd?##
?@@T96dYodPXOV40ypmpcwsb4xeYw7Ps+RnsRvuO875nEynE530CUnIWK7oO3r1ohUaBbpy?##
?@@hKaRrbSPwBOp5MDxid61IhaS2Khp9c/+NjPYHLJnW+DDW47Rp92dGDY0Yv54Bcy4AjeF?##
?@@7Sxl7GzIdSijWRbEgCbde+VbS+GjKH8zzGKvg4/a9uStzvw8DufvHQpYscMoeIMeaA5x?##
?@@NgfAwaWrX1+kXLkZ1Dy9HGAk9hvGRc4rxU8LGM6IIXQqx+VvUgxGTSF860Li3K+MWoCV?##
?@@82DY/ncpl4++Om8id2mM697n545GFG6I4pVF7O4F0ckbcUOCRpkRBmWMUCmp4LbkbWAf?##
?@@RH/LlmltZMy2Z7QyowW7lASEHZYrgbziu0nAUQBJyEPzbj5JVyWxaY2JdPfaTHrjKhX/?##
?@@beDavaECA68Ni+1kKQRPltPZaVlCojOvl5VvQwiGqQ6yS2dt3l04B4YXjkB2LLXTqq6o?##
?@@NgfAwZzRlVA6WziUmMKF4lfokKik6gdgXuTB0GZuiEcs3d7QIAzj/sE5HhXFJ6ZPLQOX?##
?@@jwRjeXX+NCa9FQrsayPMfa26lZWqZrroH+noglNkzL87fjmKyFLwjScLRJ13Am5gLE9D?##
?@@uGVyoaFyZAly9QFWX5DTByFhUfsmRhI+Gm/fss1JUWhSJRn+kGFsQFb5FlctTo1qzRxO?##
?@@rQag1MCyvoco8WDHL+5fwjhStf3r+NjJcdVJe9FXdPx/LXlgG/NZDE4N+la46IWJHUt0?##
?@@kh6cgyrdel6EW40le7Dx2V4XxlDWnoDJanF6Zw9cVyJxILDckyhDl31n/AhGVjtAow3m?##
?@@P1Rs3LLMrwYqZwm4r9XtffQUCBzrdOMpvIVKIlNXXOyd6o9+FwTHBP4BSPFDzery0Rf5?##
?@@gINETAbm81xpLL0IpnYHBbLWeBNWF6+uY9qZFnuG3t3lHgwoYICoUQ5FuPXJJgXPNc9G?##
?@@dSVygKuc4QgCZqG7tvVLwb2lFWTwGh9su7xdlNlFgxNLQhHoxDdOs1fhX0+4BTB6WJH/?##
?@@xt19dhgj85TWyHlFZs9/3R7vRrdHqdEEYodc74/BX0r8ILU3Amf6Wb8qXvGiTT6t5FEJ?##
?@@12/BVLk/vVDHr0qldrrZvm/wnTgcDuio89TuxKvZXNVtLWSieIm9NDYc/KpyOVYM2MR2?##
?@@/K2EGhkzL/PhRWEut3iJyd9JzNU0i6e65zN72l8da1588LZ3SVNGZh+mhH0R6swvWfQ+?##
?@@dSVygPcmOijWAUO6iYDul8a4NcH3dwf/yytOWDz2QWpPN+R4Lxp8FaN4ZivtZSwRLk1z?##
?@@di2G2MVS1ucXyfhPEj6FyYwIGq1gJ24cXmqqhHuLBArn1YY9Qz8CAhaCIAGDXqBd97Jn?##
?@@T96dYmWUoU1u3GuKrdPfhA8xCtnOaUinvC5PQgPWZQ/TZRSj7fCwbwFs+fK7DH5XvBsw?##
?@@EMDqombWuCz0J3sz05FFFQz9M26tDEQ5Vy+T/kLqYsbosXUMQV1DyhEsHSzp5SB3NZst?##
?@@ha6kBpk8LYG7DCy2oo8Yl0ePiNmMUUsgmy74yBnj1CEttJH+4VjXvQ0Vx61BuT2x8kDO?##
?@@lkDo5GvmiTs1zaw0nqMF8g1CkpUTWEOslOw4MA6EBzFdMteEXnoPa5FiuhMeup4cXEZM?##
?@@v6H3C17S8rNl5bQQ7EUzEZuhfPXBIkPVUMcoumqMSbqZtBRThpVy37ojJ8MDlUkLUDsy?##
?@@LLEBTcv0fIeuiWDufmboteund+Hfn9iaZZ1nZdEumqI6z8epVsqzR1FzSN8U23H8wBbQ?##
?@@MdxgB7Zv35uiHmqqS34kr8y319X7qbfvAAtKoMqg78p35Pd6W/BDdPKvazRfMDGeCe+O?##
?@@quxmy3fxzIgS7mu7nSY91/ERRNsbyU1r7vdv9JBWZqO6jYYAvICRDC3bnDsVyeeK/2Xt?##
?@@kyev2xASgTh6WcvWEGOPZKLPllFcX6/L4QXiwybL89CPMTtllpQqn5en2fpu3nUgFaQ1?##
?@@EMDqov3T3uXmJMXYZwmAZX7ZZrE1Jn+BfQqRGbiA4sOMdekBVXObSd8n1blYKD0+c22A?##
?@@+ZRLEXY3G6eLi1XO3yXe1lAuJ+O29wbTBsDQpLt6FUPIpPaRx8ZOEuRzZNiQ5PZjswCO?##
?@@GhapFlQu87PssqkAIKNi1ZFlZyQy2uTG6RAVfjPjK3xRc6w0ZgmyKW1xYtGj58EkssKG?##
?@@kyev2xUJq8YVFNCuZeegmjZp9A05gST0ClIqZ5ffycfTfArn5FzDC2UfuE+M3p8MfnYp?##
?@@DJ6eQdLaqnbgsoRcpNVnpyuEHxqplrSsm/Gin0U/rlUlj8/Yg8nQXgi3ZDWiOFZ98IJl?##
?@@6QoZi3G6byxNFWAhJqAUuN9c8rYSjLDl1pJOwS5bS5AmPjJr7OaGd+jyMs0vWlU2bNdV?##
?@@4s6TIEDvLL22Vdm8tRjFyFJffjdiClvWfVGPRd1Je2vYW+ApKfR4li9Ci/4UZ/9Gd//3?##
?@@b/EAbiGEcrXS8zP7LmPug6i62xDTqI9PJPYK2czjTMXWEgUvlWUW6ABVU6AtZgp/RH2O?##
?@@jOoqcLaYhivixEq46cMzGRIqp3uWO8QM0ecJZB9lU1FKlzK8k6zrYJrObTVxyI6eKJ3p?##
?@@wbIdvORqEOhjr5PxG6T0DjP8uweVhdpBJVYvSMABH9dm6cK0bSikQA1dTzF9VxS8W0u/?##
?@@5vDggunAdD40elwPDBMQy/ll8im4yKYOtu6kwgJ32THFEtXix2rF0bvkkPPAQ/4Snem2?##
?@@Y4obSYmiUx+mgqRcuxz7BT8AbC8aU/elEnnc/OEkxMi2YgeaM7v+dt13YYGGBYC7BkSB?##
?@@vIe+AmmFXtZ1+vDL0g2YFQ5dpkeolrCvCj61EziNEFRODBuSaDJLYDplayMSQkIwblkQ?##
?@@Nf6taDS8SwAtp0BPw//lNOcZDgdVqmIYbCxyHsO2XkoSvao0QB+wEtMFmoF891dnFVNr?##
?@@lkDo5O3oEUxXUCVBSLGDbc+yHZF5VvxkeTl5QpIcmI58XYO93t+NBVcj7rDRXhldWQb+?##
?@@M+2Gt2ybnKiQs8QucZRQeFjZOvXYUUszJYZ6jD3I4m4pCiPAVBX+2Haj7m3x79GzZInh?##
?@@6AEGMqagcNdzIQnAlc7sp+bqmKHVzeLel9X7XUeT5eTjEQoL0twKU2g96ts32tuHRbtk?##
?@@Tc13sXKvhrPDOjWgyAEatzsUwuNemndSLjCrFUcij9Ad+7DC8nzL6VzhJDchAUoy5FTg?##
?@@sjH/jqR9iaZA2Ez6mpMN5g4Stk4npMdCVjF/7eCyjZOejqp2D6kue0/VcYJYL1FgncCm?##
?@@w8NEbR0FHv94LnuVEh0cQ9Dp2R+4r4bjihUi9yr3/MDcFOQuSfhoPs7THqLR4ppFyaBU?##
?@@sCDZ3ofvqY5XBALuxf7gI9aYB73fyQu0mo2lGr8u/eytH+8bR0EKRo7Psz5l6HN57qzt?##
?@@mVoi7RjiWm1pLPMTFP2VTC864g+ZOJ41y4eZVfE8QOS1O2tiTgIjuGJAquuFBQ7nXpUT?##
?@@itkDwPokOUA6KkEKab/wDXJTs7N11am53xFf9qBvrihUROtCpRiM+LX/Cx8mmPnGa17M?##
?@@H0EJ0AbZ0LolDT2KZNZ6YxpK66B3lqjmZkJVzXCzYfuJ511rIbY3irZ9Gjd4qi21Gdqk?##
?@@dBxfJ19+Pze5QZ7TKklylaTWiGmrNecfca+Zngcqsu7wgRWXFOj7oJZ4s9hXlwdlk6kh?##
?@@ZZtB+tf+qnMQ7ZRBzuTd+BwgKac1gfLccKEpPne6Zf00J4WnkACBNzxzrsrlY6C/drwU?##
?@@itkDwP1CQ294Mlnwwh8tbHaiIjigmurLNBMvxE0JkG7z9pp/NNTfyQwffEtsy0zGErKu?##
?@@a8+0DEaUSx5LdJ68FzGAilViLWUds3sOWpGJnzlR9rnzedpTCbGsTSUJ5ZPJ3Fz1xxyk?##
?@@fGH46hRqoYMNJz04X9D9BkdKP6zT6jCPfkjluXkabui3id1l/hoHlOkCVUmvkIE3rS+0?##
?@@7Sxl7DpJeg+M7N2VZzA6NVv5djO1CF1EjRNqDjIxQT9PXfhO4cJF3fu6BD901Ll1fA4L?##
?@@3qtHvwI0hJ7Kx0PhtDgc5KXYQGL5fPZNN0hkS+vgDj3WIud6+BFoteaeLHfH7EQHgnLa?##
?@@kyev22gv4Nko82ncnNGoa68hLi+O6ZZgV8qEJRQUtiX/2OjyvFuUqSbl17/azTrAZjl1?##
?@@1FaISyfwnemwXgbqBi5ghNc4MKg2vpPTDRRdG3LU/sb3oAytJA4GgfGzbZ4vscF6514R?##
?@@9XH+r2Hak6KPl6V0u5TcG69qf5Vyf36UpNdxwXMikiGhGekf8ncHBntMbkl7uDCPERND?##
?@@0kRimr7PK12wAqAtf28/nf/DVFcW3vuXtiHXYH2rTHWJioo2GKn42DkgNi6HcTMJRVRq?##
?@@Z6xnq+MpFh8Ae9YURGSe+0t3Ixlnrdv0a4dqyThPQcO6Wm+6XMEArdWu7ZnWDZziHddq?##
?@@PDsy0+Z/qjMczF5bLoFbGAaeL2Kpq8zhdoQGuxN89p2quW9lJv7uf7VrHqIfD40wQiDA?##
?@@YXn1mAi3vLPY4GeFdbMPk3zfECdZ+l5X6pQ5pxmfli7S9M2IuEDk964D+CulvdzK6kF7?##
?@@asagtPKX4iMAJeIci6Ulj8v7co5YF+RS8j/NlxCbC8Dj+tSj1tyHqpm7T9+uVBRDjJM1?##
?@@rxfGhY+idTbQKVZzW45R1Icnsv0AxpkghFSzrdpfdAANHbzeHzHmcSUePJREsCrFEg2+?##
?@@BFkFfpWOrzQhJ4LXamHeQuVgP0jbE/vyJ6LuLBZjnKjBTM+i9cRuzBpQfnrjuG3KR2h9?##
?@@oZ+6sJRX6A14Vur1IJCxnghRKsrn1k2q4dLanni+WS9wCXJAc/4PUE8zrFChrdJmEEhW?##
?@@oqjOCB4mPM5eQxgeSUYG9NNos1GVVkWtVA6mJRjo7z5MlUPik1q2IEb9p9pa61voaN8Y?##
?@@f3sx8z4eQtldIibUQucQwcYxuLEgv4tVlcBdz5aWut82aHFjxf/a1EnSFZcBvd3+m5KV?##
?@@NPaZEPzD8I8s+FTaKpYBLybDnyB+Jebp34XC00o9rfTg5M5mNDbzNPLtjWFgNcsNu2ZZ?##
?@@rQag1CceTZev2nTwS7IfVCYs2G9gZduo/FaDOPF2SvupRShhGLYeihTD2tQPmm6327un?##
?@@Xl+7j5ywdPlmfIXyRrvY3eR8oixjvl7tD1QXL8OTVNgCqiNnFVxXTfog6Rpy0pdSl8T+?##
?@@rxfGhdQ5H3tb0dkkxWBVraATN4v2F1UG+Hz5RVs77morvqOtYB26tBfBIjmuk1+qZEQ4?##
?@@JGxoiteBfgSeTABWr6MvM1x0hQYsRMLqI/WScdLYYM9OoY5N/wo2r1e/X+ddBuz8N/Aw?##
?@@AT/MdeFcDOYD++cINcV3q88BQZSkC/E1Mg8+2r+G5KrYet1nz1svIzIEiZuPK5QDXbbb?##
?@@Dq/E8nEWLKyGxrzTtGCeeo5ztrM3F9kgPz8ou4u+iDg8/KBoFht+vJQC0Br/xPOxlDSM?##
?@@A1DyJra43JtNqKN+XgjkbDhc5zlMthVFntD/1l3AzrGFf12Q3BBcAGw/hoJBL5RHKESf?##
?@@9GnrV6Gf6W3O+7JTqxk9XftJK2C4Ib2PxamTzU0+qOOVutgC3eucT7+mzKThPBl2lvlP?##
?@@QWaSjUhRP0IoX+ukpDw3oeZ0oZIZGtecrSFy1BSYjFcjkQ5FCr0rXlica2jZOuiiDOi8?##
?@@cgs5d464O6mZOVER7g5hUxN5BsZHnQJGOQl7/8Y7YRFSttnH0jbnzb/Sw9Ma2oB7O9U5?##
?@@+6VxwRQPkcXJl6ooMYrV0Q3D5qKaSlvdHuUYZEDrrS71bL1MbOPis9QNFCEwAB17IGug?##
?@@qNtAGyGSIC9NyxfStPBDzX7d6t+TRMyogMqiPS3YxM4IG6Bfk+IVITndJ2WUp5EJ/66m?##
?@@/baXculVxYffULBGHwMC8KvvFjcMZJtfw9YyCooLsiveYmVuoDb91Od4/g2AyUIPhC4x?##
?@@PkxYg4IdQifMoGEhYXnBoIxHZT9dYy6gyUrGqcK2bWIZfSVfKWvDyDdJvihiY6lDm35Y?##
?@@zyspkUoe6JdHwz+Rudzl9kwzIccnNHdV9/aoAMgdviLdN51e67WtR93Hk1ywc8RZmzr2?##
?@@aLV6A+UGpLGWtpg94qIpREbCuuQiaBCkySxw9XnLZPDY5nuZvVw13te8PFIXZDNg84UV?##
?@@gYxYpJIP0oIQy656M73dvsocU5FCf7bVdzsqvjO7DQ+W8mlDME2Hw5iYRfZZjF3v5lYo?##
?@@FvRdtVAgiIy6C3ZSl2EIcZ9H/yyQRVHXUAULUFAqoLyf8+rRbQAxW2Yx/t0CsvT+m6Si?##
?@@dzaZMXpFZTO9LYlSjoqrrG1rD4vfDgEVk2AB7F1DlfyPPraa9+d7M6q3oCbPOEEAWpjP?##
?@@7CRSlMIniIEi92DuQN9HiDJGDoyi4/dodNsQiciLVskkEwhjpVtiTZFjIrVw1/6OoqmH?##
?@@CYRlOITS/OtYr8zlxJxe/jUTi9Z23Yk/uSRzDmIKBOiUIaJ+ktzpAMGcy8NEKKmHghLw?##
?@@UvjWaznmOcVBUeU6QZrH2JHw1vXrn1h3wSlbT37aE4Dxiw317hBmXCPIHLv7jApy9Hkh?##
?@@Q3e4PXlbBnau+0v+Xa4fYO+2Y6RGQ3mgMUJGLJdIxheNIhzCX2HBapUQFpRpQgQkz2V7?##
?@@bNfHZIb/tAasFy7R5GRP4lHAT0zv3RkeEgr0nGgSyewKiq/1UCenXGwKNyBUVdRcJJdj?##
?@@vZDRWjKR0JkJBarHo7D/LpwtzwTtZ+J124wfb/otrlyalZqdCTZyjZYsV+ISUCSDW+kt?##
?@@EtEQU+hKUdB6gSuM6GmdkzB0Bstr2ogxzltHAN53M6huqUjbwq5CoJTLx25k0EPdfYUM?##
?@@Z6xnqzJQVQnNQrQkSgG1lcnMLy8od2ZjUjKun3B2NOAkfzj7ZjPW5wXrudTJ7IYGBISz?##
?@@RH/LllVs0PS5gYR9g0jg+joRW6lU9gkJsYQwFIPCo7y9K/pTpelCjdaHq1owzhij/8Pf?##
?@@uW2F+UBGy/7FGT0dwEL8T/gpQpxDdODCsNlTwY9jiLTgXOO6GAFiNE1RwayY9Q7L/vOK?##
?@@WjxvLr5yUoHdO2+Ak1a5z1RtdD0J3U/GiqPRBdfYGUVsT4t6WLYLgK76f/cib+bDPqES?##
?@@R5kEnzOdfryongVHYmO7N5Ivsq2fFot/BXLdNXMsW/SOW5zTgT7/V/2v1xiYEyhOW+nf?##
?@@xMxXxSbyU3taZ98iasm+LCYTra82oVb0l3lXIzeXKFYqQVvmEzPze0Mj26gqnC3/KdRX?##
?@@Nf6taOfKWG86Lexd3HcGtPjpCErsaZ/6X0lqRtuwqVYu2SPOQLlRx9ujlYI422oAUjW4?##
?@@UvjWa4TPSTTigIt+Ks8E6FKuxY25/3MCJNi8q8JsddewoYXI0dFMC1TYnKc5qpRcxesj?##
?@@kyev2yF4QOfUZ/D2IJUfmhfdw1f0A4Mou6Vj62rycUaCmI+h/iV34u+Wcb1GlqVm9Yyu?##
?@@WCtJfT5AiKfYaxbMLTnjLzxzewSkheoJ0oi7pVPdAu1reV0ugsTMHCAd1lCM3MXcgrgH?##
?@@xdVqHZUttnrYd5wP0tjx9ljLDP2nHryhcHD26V5jZRW5eXXaJy/QpswQJTktQNFgh302?##
?@@sjH/jscuaI6TxLCY64RjxT7ajYVYpZOv4eo6uzNqRpy333k2xR+BLJLc4M0oP64hFkKR?##
?@@6xs/O2ajW4tm3wMUeIUNdLxN9LUKQsZFttI1YMe2ivfNGuhh78iZZdLIoKkEkLJMDo6O?##
?@@LLEBTcWS6P0+7QlssXwwRVR9mi4eVMfJfTYKQIxUzN5aMrsZGr42HhUzrnOYlOsZenyZ?##
?@@5ejNKelbwSjWdSloUehcIRsetx76nlMmb8HGzi3ktXmgsR384GIec5I8X/FvrHzKcFr5?##
?@@sjH/jiQ6i+veLsk2bJCh2on5/tbIEVIB84pRTPQdhr7r3gtMPmwDcmVh8bdsutcWjEk0?##
?@@rxfGhZV/tw9lUqk+BhWo3DNiwS72aA5FQTsnC+ww/4mJBOyXi85bxDfNiYdfmbtYp5Z/?##
?@@8Eaf9W5q/N6FmhBcaDk1N/hxJiOKNvt3aJZruXkzN+fXjYtybDgypam2vJ7/Lc+wInJA?##
?@@OSH5yjlbPb5P+jX+zmvoxfJWJyFka4sAq4WbF7OtmX5msQdiW/S2kgdVLxh/uQNVvJbf?##
?@@rg+zLQp8/pmgib7JBvM8va0otDLQeJ4G41TLtNLEK9wOZa9nBZmrJxPRhsVNMeq7xSpO?##
?@@X2fO6MvytwBo+zB6Z+w0GHtB/rEGE/AviSGho/JuW/eEdKU4JeuyZl+dgwWqLLP+TbOD?##
?@@RH/LlksSKwrApgYYI4HjNcRcDn59UJ93lsy+7b1izTLUkiHsAbBD2JNFwmNdlej5OmFO?##
?@@Ue/DEt4xyjpOC1A4GbCqijX4naz/mpAJmo5V+YZlfUq+93yqaOtpOaasnejIuPgqAuFU?##
?@@9noRB25Dcv0HVF4YXFis5/60iurUjOI0cai8iRRpAbj6cdiRmGQeX/1xN+IuB6ot3F9d?##
?@@l0n8PMv81ldZwaXZ1zq56kS0461TN9SRoLyWgF7iU/2l+B2INsbjtZ4MYwFw75hPng4G?##
?@@JGxoij8CRGRvPJ+Z9wL1OrB/H1w8B6Zmu/KARU7AdVt1z9zDm3gVJB7U0Jq2rEufnaz8?##
?@@eUe/4Tu4r3fU8NqrkZbtAvKK2XvcAad3tZQ1DgciD4dOWmGZLnd3GToJGIows+6EF7so?##
?@@WjxvLsI+THedrf4Fi0oURXhxq5FjAQFFw3DwkJtiqMlA6AZiSuIwUSMdM43wJ5/u1QLS?##
?@@h7/KtkK3XeoMQUM5WKknTrokfzeGmvV53wosnw2XdAVmZsecRyz0ZhnYzoOmD+myz3ag?##
?@@dBxfJxLCpBQVz1W8L55TvnTQ23izJk97QB9xbuMbsVM6LRQShCg9ub0HqB5ZAhKdrJqT?##
?@@Ue/DEoddVeoMRjCF4Ni/IgivrXshFbCitKrX81wnOBd1MSVL6G2nZXWnkVS2B55jqpWt?##
?@@oqjOCCBqssCzS8JCPnFmB+vNYGVsHO9yKwm5aochBJa6LZLN0U/lc8WvLO5ZdsiMuq70?##
?@@R5kEnw+NSCNRsI9KbpBCvMlbbS7MWs/4d/c4RJRiNqf4LEBg6PBqatbSlqxknU95a7wj?##
?@@CHtR4BT5Gw+cfMwTXUzNH52FGArX+PWx2KLy3e7pPl6weEw/HkybYayQeNU4hCSvU3IH?##
?@@OSH5yrK0PS+IqZGwR1+3OjUuH7DINvEUk58TIttUOAvb6RliNF3VFIQxcMuRHfr4I7tj?##
?@@GhapFoEHInT7kFKmNM5j2zbBnLZjretxsVAreza4huuRYkqM5FBBO+oCu3lX8AlxzbVn?##
?@@Q3e4PXvQxKUiUPmCSYd8vLXMhn4++R9vyEs3RkFXuFD0XruNbvCHQP+YoR2481QcN9Da?##
?@@PDsy0xURsdqV0sao1Uuqfp1wyZMVnpkVl6BIp+KQuj1i0xHY/xOZWnarDmp7dyNdsiFO?##
?@@FetKXBQRVDI0bZhgTmxdu0+sEuCYhry2i89wBACTlFpKXxOyl92XQBnkTMbd3ZWvBlBH?##
?@@xt19dvHuzTzXZj0dUD0ZN9E9ID0RY/EwWfpDsUANytGULcH0ICBGL7dumL6i2SnFH8Cl?##
?@@p9Mtwix1coOmWFBc6hF5tKv5fHl4gdK2SdMlqqTMJbCJRF86QAvNZUcQ3+6yGwI1EDnA?##
?@@YHDiQM75f/1mUbpkgOk0XcDWcGvSZKUrjKXwAXj3VLUFbVQDuuHRsBDx2NuJ9kGgcfBo?##
?@@uW2F+WtEHqwrkTRqnPpPTxTXwtowUBhPGHZ5Lg7YIPqYwO7gEIyFQYCrYhusAtV9jY8d?##
?@@oqjOCDnRiJTVrH9MFFbSVk/JNA7dxoh1SAJgNvc4m+LceIYPqafen6eJ52t1OUjLgQ9G?##
?@@v6H3C0rTSou7cUb/ZpYjXZ0j5KydvaZV8ps3QK13wyVu3iuBK+17yvyaHYLq/8zdYEau?##
?@@RH/Lln42Wzzwwl48/8cYe8QFbhQJ0kyMNt7NWiAYUqFU8xynotOrJWeOpZss1Doyi+Xl?##
?@@uW2F+XKVwIdR/Q28OUYQ39B6VOCmaY7LLGHalq6Iyh1YEXvQQ2QObN1VQmhY/JP3zdrB?##
?@@9noRB35N8zcvK27Wm7LWbQQnTZSiyIgHkIGwBynPq4KU/pyR/A7BKywBkoYgyQ11ceS+?##
?@@K6ju9J3BIkwW1b1Gn3uOkye3EClLd2v3xk5Ua4AtDj33hyS0EURy7pNPblQNpn4sGqOL?##
?@@sCDZ3u1l5rZonxq0aKm/acYSYIOFDxKcdUxo44+FxsapPJVvZ75JlShbdgyE6F0oP1KG?##
?@@kRWJKtzPw9K6ZGDBqoao430B1HB0ZUot1N6NM4KCo5pQR7urgc6+Vl056DQ5FSfYawYW?##
?@@MuVzXza8TIvCkeYV4R5F/6JntWQHVnG+np7fQqZokG2VQVRy44gVUYvHs7QMHjVPHTfG?##
?@@S7tRANp9J1+0WGthA++VG3MYf1RlyLkXRx2D22fIzHWI9nSKk23wEJg9UvhxZlJl6RV7?##
?@@VAn8HFXJk+GUpdX41SxptkSnodMpSHT3I/4QnrS6b0aRNZz/oEBRj7/0uVZnXApb4Y/N?##
?@@SaoqUG+mzd2o6YfD8vponWRTKLB40PgSiwyuHXzWH1MQxnFnCn3F22u2eNQQEeXdBqlC?##
?@@sjH/jmcG1ftqbd/xK/GuMtv3I9OId/EcB/J1kuXTOfAyH7fkLsikjdamfHT7NGLW7G25?##
?@@A1DyJvq/DMy/nWecC1+Kh7yL1uRGP8wyoR7Fg/Q/EPrcg7nMjk4eIbIEom6mPO8z2m9S?##
?@@bNfHZD9qQlD0eIGnL2A2sSXwm+1FfHc2hdzZsyEAxi/mLCQ+iCMYkBuoplIHagqU31wV?##
?@@qeRTc6mOR1cGBQPIQtu/pFPmYDOcvXf9cw5hP8A65F0lgenpUgYvrf/6GpXGLwo0h8WY?##
?@@xt19dshY04Eb21KpNjhf8vgNikMRcBAhlR3jHt/4PCw4hsd2V1nQByL2FQbeL8fpjo0O?##
?@@J4ahkwMxHir+WoY3wVqB3Rj5uuGzw4DUwS2r45OUOwkMKy9V8AhLsuLJmJ2W8zSgvXLe?##
?@@vIe+AgACACaW5xRGQO93gftoMZIbB7GVD1QcWTLEsGy8j1N48A13UJqaRPDBg3Cm2K5i?##
?@@xdVqHYeDjcDE2FxEZOcILpgP/4+2SYZVUWfBCFdU8FyVJk+h+tGS+rc+hChKGCxaafKn?##
?@@PkxYg8tk/8tQFwfyFfs31d+7Rm4WZNq07XSrPvaK/Gb4uO4axwQ0wP1mp/RoMwUiuVG1?##
?@@S7tRAHkQTW2Ha1R1fPKwWKzlbapRtoz9yE+NpxznS6JuqEbXNygt8bdn8RMueoHhRIf0?##
?@@xMxXxRntxcR6E/Nlv/kSIGyiFhRerZ6Jonc4m7T240oRHu5h97iNsXrr0o4OqeKLjKu+?##
?@@dSVygBxqvBF/c2H3lyvHQ1zZzm7xfrsgKCdaTLogBZ2kFVE/33Rn04dT3fA5bX0/NvFR?##
?@@4s6TINGUSZii7PBivVGP3l7ihpKlh6Z897naF79HCr76W9Gxjd+kItbBJbjd4Ne7apPM?##
?@@6xs/O92w5C0QI94qHGW7DfCh6t7Uu7ES9O/vdIvCAczlbrOrPOcfGEaBU8wjkr9rUe5b?##
?@@vIe+Akuc39WkaDUC1XIotTQJGuky+tSWy+ivYF1v85F4Batu12e7M1/A+hmF804TxVBB?##
?@@4cWAyPMFc7QEygG6kcHTT3rXzcwL5CEB9N3obIIHDRwOSKi5cwIb5//uLngCL1Idw/Zq?##
?@@YoEI8aavKKo2+fEERLQpwwHkPTt0V0VuTPWMChfDrDjKqXbKlYMrcpeX71yskpFOdr2z?##
?@@D7jXSig/wATpbgigl4DIwdJELBTg4YLQT8/Q/vRwX+t9x5gbhu+TpnWEVa/Zj8uLGqAy?##
?@@OBjmcZlWJLTvjox2jwqhSCcpHh5waf77ly+CK3Ph7e7NR/b6eK2y54uqUPd86DISF4uS?##
?@@idHwZ9rFCdSOXKz++oHLjhWDL7swe6VARkqwemPH+ilSJK3pk8/P0etDIhsdXEtMlgOq?##
?@@+pxeaaM351IZdkEpyqpHJ+2FZazwHZ16NllsvC2rbtu1OzeVRzfCgi4++Oo6qnKngrg/?##
?@@49aneKeFxjYKgBrOZRVV3gg79jol9rY/javK25Tm28Sn+AR4XffyNzNjagOprfY45t7a?##
?@@UOawun0WzxguffyVPxvcicnarF6JqZ+KEdOBEZluIWWpkg4Bro3eXXh+R0fxlIF3rJyr?##
?@@QWaSjZxwbdHUSimOMPrx3NGlrNaUasZbU41hxLFoEo4azuDqPUvreUWHS9ZoZVnLkTUw?##
?@@bujtFbf1uipXCWFTmnHgDjbYfyvhXA3hRERf4l29KEYVxo7pLhl3gmSpofcatpkI3j1j?##
?@@szoS54u9VziXFSp6KwglPWrl2+85Ch7JqU3gVs1qXGn+F85Uz21Sh32p6kcJz06GqDaq?##
?@@DJ6eQW/fx08fu3EJtMyUU0O46TqOgIcMrVkNctnk2CTll9ViLbM+sQdTlFFhdrpYM4mi?##
?@@AT/Mdft3WU0TIeZSWS8gsx9bB9EjuwTe3oVs0x7hLvUo3WF999m83sO+2Z251YFqeRjD?##
?@@oqjOCIRU775A2v/tDmFqb5spKXUthKFLqgD92wQu1GHCAhp7d09S/RI9e0+BR8GyshFz?##
?@@H0EJ0J2puSZzRtJ9XNKruFqPd9p/dtwR7xu89BCAPi8scjDk6DgubKhhRcRsfdJjUXWB?##
?@@/K2EGv7PU7D3YkgsDUl5HKaZM5ZNQR37dw3F7ejEBsfvGwPGORG+7g+SMiCece3JOh1q?##
?@@fWkLQ4OYqpYl3RoVJwa1+x+oiXdJZvZouX/c1FVCNHRzCmpneJyNbDW5MJ9INhpklovX?##
?@@BmorL8ytq6MdrMEkznKnJSK0OU3MLWMR5rMHb7CXejOiWBf6iGPLMwrUdw8psJCK2wXo?##
?@@6xs/O+Rfqi+ODtEZGAeTQrFQIYbgPpl3zs1BV0/TxXf8rdt+5fA6KW3epTqtKrhWQGtJ?##
?@@bNfHZOdYX00ZVQ4W+oQXTNK33/VqXqzcYbvSQGrYPM3tHFmzjTjBdoB0O5wx8CSNY8MZ?##
?@@IVIvgWxCLO5Q3qTlw/+/Zy3ZZFVNO6fX4xTAlnUNzVxHb/3X+8G5CDgMkJUZek5zOarp?##
?@@kh6cgyySToFZ6jfuPstqrho9xuvSLqhvPHH8AM8B9ZjmcJEqMCcr1QzJDVacAhBBixRZ?##
?@@l0n8PIUe0GD53hR9zdAFNSqmWgRKbtSnZxlYgv1JsozF4Ujqvj/Fb+OfoYAtdHKU0SY/?##
?@@mFIPlUjXfm5AfzcSTHpDd5b0+wg1RQW+EvqfMoFJQs/hhe5zddLqQJS0Ze0RwDCm7J23?##
?@@GQ6WviEmBuZU9y4roXcQx/PavgDiZLELVG1sBbmaIX58Lu+f2PjeWdevp5Dk+fBST11h?##
?@@wrswFBZ8Y1zl6I0ZA5wYtuh6tV/3qCSBRPDGr3zyNIajN3hzWoRwBx4jjtDb9e1Du8zw?##
?@@kyev296O+oyQAsi+Imi9VwyYdugPpidSkDYLpSuwOAn2bQ0BO2Aotk9HmAhRYhs9YwYF?##
?@@RH/LliQD+LP3sM6krdMpigH/T6Ne5zET6Cjh8htXDYPR3GJIHPraM9uxxZQWe8XbHRlu?##
?@@FetKXJ0ne+Pl+dUfKkwQ1fXoStM34yBddIRWFo3OWx7niWxePaQzmORfcnF6TUX/v6cN?##
?@@1meu/JVI39DSXCYmWZ6nqAzdE045Y5a85AubJxBTMPI/NcuGKu/NXCRXUof3qmLSKoSD?##
?@@OzIfetUoQTwbKoAczpVlPty3firmhdt7WmGshY6R0rO+Wgi6i5+RhggskAdUPET0JVDU?##
?@@VAn8HDZityWmZcm9/VaFITEuQZQSUFKs5Zz4xiYFDNcTup1GbJ1TsZp9lA3uLhU7LyGj?##
?@@7Sxl7IddBR6IzoIo3e+35bYsaQpbKPX2PMGphYnqhcbHidbqVAN2qtOtHXJALCouK1Je?##
?@@Jn2OOyR2uMxpTF/FkzT2IfV5LDyR9I+oPNMXw5/M03/5Cvm4LeVwQbpIeHgg4B/JBGME?##
?@@p9MtwqLz3c5ze97ab76fo/il1aljspMe28BMLlh9/bPbqu+xWrwzTVW3ISd1+m6O+5OO?##
?@@OBjmcRAAtb0MRiPl8EuhWeF/qLyEfL6ZeixGC04UEGHcvERWABPXDiw3uIVKKDV5J0L7?##
?@@yfe2f8LH5Ky2DmLpbffM+8fxbVDNECgS2E86xawknsMxHO7if1peSjypFjiGemympyti?##
?@@mmM1RVK28MXruV6bc2MDRG2OuMia/cNj0lr1Bl6FmgTkxL2sRgHShoZ7ItM7XRXOdKlw?##
?@@37RaF0YUGQUdpjaiY22+FIC2y7u5eBhDFj5kWcCucKLNMk8sYLaUOn+PpTpHVVd+zEnl?##
?@@TMRkWRnLEW4ksGZXkbiWgkDZGmfN4zU4uo8hsWiRRzQHkkkrbt6s5UEatol98bQHLfPD?##
?@@KZfHROPqZInPXzmCt7cOEDRY9QJkmIwf1Vukas3SpLWuACl18hwkGVqhz7jBkCvYh1Jr?##
?@@Co14kH78Csd1W5S2C3dIj6IEGLq0R1iGU0+Kb8cOUO7iuDuGrLb2QSmq/N8QYET0osMr?##
?@@cxNMz7xL7GvWI+QusP0rPoIQfZuMlN/wQZq8pks1cWbozmVlZMcEBDpatDYdXXhs83sK?##
?@@4L1tbzXjPCu+hREIkPB8umDcIar2PvJe6lMInvfY0pF0WZyQE5IKyscjGX/Y+5emBZ8t?##
?@@4cWAyErkSM1GBq/hzNE3i2DClGzlmPQeMriWt+zIVZ6jyBGt3ZYWI+1c0E8xD49qk63p?##
?@@AkjfzbJZZZgvb2tslX7paxWu0bml3SS15PhAxd936Q0bygwgFZzq66CshFscCTG4oxQN?##
?@@5/nz2hOOmsaO2I0E+xPJ48a+pD2AqxTA8EIzrlofn5x5n69U1SXtHrBqx3QzWzXpPOJW?##
?@@xMxXxXRWYAL/gqpb7ZFYurDMzuUZscfyi0DAiteWpFR2xBgQlPJBxh0625RRy6Y2xe5a?##
?@@6QoZi1wENuxjlSdu3NFB5OH5Lp47MJSZmZmwrM+NvwsduY8D6E+Cs7co6yY23c31xpBp?##
?@@AkjfzW/+ROz76WGl2/daHNplFlypEY/cWMl4rG6dtvg1WSwybqfWNNQMG7z84Y3IQNWK?##
?@@o7DhYcVtWqyiZUv+c9FlvoH9zUQHtpRcZ63kxHng8VDP4JOJCkRIJaC7U9vobDUWSRay?##
?@@iMjdD4GUuGZPoMzDTf8czLiJP/PweMCJyuZu/pvbkUfZnvJPQp4ffjrpYpn95988dlr2?##
?@@WTRc1f2RZB1FxZRmB1UaINrnFM1+0Yg/lgImmqrgX9np7nqvbHmaZoribPkQDmgT8m0M?##
?@@elDSOnAaEf7mp9ZwR97q/kvPKxMY4COnouZ+CT9pshnpwLL1Rw1+ulDH4YDJLG082KJf?##
?@@o7DhYUdNZI9FVHVum2j89tjBb1XWlrasoTFbHPcu+NlIOL59EaU1/siob6RkUcjCsZvw?##
?@@sCDZ3vZUuna3JU/rPqJkMybYnynB3Dvl8rNSMZeunj2cr7LwDu4HYVyt69ajjYvWhkEP?##
?@@1V6bo7tYcTfCi51/ecdN0EA5j83mtBy0PesOi3rsrARYakje9MEjXQR7U2sWEQyc2OaS?##
?@@xt19dgO8pn4W7TkzGGR3YyGtrcBxAEvtjeftU7vNHbHfNeVT6yTPgygdwgpdx4//u11z?##
?@@ywjcMD1Hh2v+QKqMZ8ro1ibNwQC+E53pGhRYdc511eYqzFAUOMY+2JNvuHactipRDgRP?##
?@@3JohDvA7oiowqrykOafMpvSsqhOdMRp2DMlStbqbR/6BZwShRb2lTohaRNzl8tgg88SK?##
?@@Ue/DErOBsc/W+tHhInHuJcKwDySeLs9U/4cRJUBywk4XmzpmzPKZSHdgbcyk0DZ6bvas?##
?@@mmM1RXubRInb+XjGAMbLeDyYCL/DVKVqHBlXIxgBCOZwEG6aDEs4erlkFQYCAshRwBee?##
?@@7z6MnUcazaO/Yu2eNdWcCMLOBb9zG6mPwQ2kcowglSNrS+LKV6CtO6YfPu+fR8mXT/wy?##
?@@NPaZEIhD2OXlC0gLGhdJ0KAmlyZ8oRUShHvxU+zZulMZxEcwjGG1KG+1bTPyu5N07pRr?##
?@@GQ6WvrsesXOJg8OksmUsVG+Hojw0yASfr5yw4K9Gp4+dznUbxDglmpff0RtuyQBC2BHJ?##
?@@/r+qyspEYNZbw+iqXksUxwBwcEz779bZ1qClqGKu9Z2pCN9hgX1hokocxGaJUC2siM3O?##
?@@a8+0DPX+7P3gAbkiR7W5NlbbN3Fk37S6TW9mF4FLSw7xKG5c4GJ5ilPq0iTGx2/2x4s4?##
?@@1FaIS4kU9uGo+JNPFPE3OjLojCsEqNj0QYA8A75MDL762erT2yJ7HrCZlsDoUtRNWXGY?##
?@@BWIY1kMtRxlRCF7coL0vNYlg4UDzGAsdW97jo2issI0H6B0t/pZZt0bnI4nWYIz7kwcG?##
?@@gpRr/adX6K/BAGNhUlJz7MQGav3VbK+l78xZgYOglM1tOoJHy5aq8g1OPDJPbVo2uOug?##
?@@jwRjeb/1fxXi7zcep7H1G1TmOMEOpZLOluwz+mi9ejlFIbCVjNVHJ01TLJWEtaGvUc7G?##
?@@9GnrV5MsRkMzdUnaBBr4M8yzQPRb6wweW3Sl++A7tyiz51ukjAX0pcSA/edSDwaZb6I2?##
?@@oZ+6sJeJbTo7x5tpnUyOiLuTmej2QYa7Df0PrG2Ycc2kxSZVMOl7Z93w8I1D/R83qT3P?##
?@@cgs5d41gllRKYENpc1IdSE4LBDdmxx9DCgruVbb6MprGZhpOx8sqntYbg2YqKOJggG1F?##
?@@x+aQzq1+SvkG6TMiojA6JwfkMl+QSwnWWlFIFuCWRwUkL9m29U83N2tXtM0/m3+Jjmjj?##
?@@KI+065De6pNkZdabInIbbCv75ic0csKzAhOH0W9PswZGZ2XYT4XHkIYDKlheg5olRbRt?##
?@@pcEHElhr9NjX26dGk+msqCGZMxo1DHyuObmFDXsIZII2GaJWwkFWrDh5ZEg1+CqTKP3R?##
?@@bujtFaZS0o2FczGGja9LHnVNOEO+tROiYhInzXnLSeAMY5GkWgOjfP1/iDcumLvvRqTi?##
?@@o7DhYeVylLoiX3q43H5O2MHWWWExza2HJubB8JQjz8tyO2yfkWouMbKdMK18nTVRi94U?##
?@@7CRSlH+MbHmiCLv9VcD3Ih/oX28gmTDT/lOtAkRuzuKWtc2aXncD1exYhNP3WVDBKCcS?##
?@@SaoqUHUhgkUGkXd0HeXP0tKCrGl1xNHx+IItOUpvkJwxR7PJVk2jQtjAgz47n+/cX6Ln?##
?@@1meu/J7kEPRHsgFXj6RndYbYvmENse9WeNwzF9689Ft2P1OqVl0t1MNpOIJ8WBWb0MFp?##
?@@C5WL6f4rqrvAJK0orPrQ005MxOob/kkzBOLuqVUwgIV2AypQdQT43NJtqzSu0zIbdc+3?##
?@@5N+60aST+8z8rehZ0jUyASpmhgQLf+MBAghxP/1i5iGNd5IH1XFDs2o8nJ8x0CudKwB1?##
?@@6QoZi8/NN9aezA8uGOUiIKCLiUp0yH5AJuqm0o1XaWCWIK4M5BDuC+VBBJCZ0DB4FdpP?##
?@@jvxQIdD8T5TrLaMQn+oUINhF83mkHR6fRZzCwFs9o7dVr2YLStVzBd79emaRsM81C3ig?##
?@@n46U/+QEEaBgUlAloHBnEeCqjeRK0qjbUASvEGhkgJ2XgkGnlXP6twOeTR6tlchzZB9m?##
?@@oJanWDxPsKoHYrAiJnzfuaTK+Q1lKr5G3RjNIp3oK8oMfmd1EgVjJ85kovLJDf7CR3qg?##
?@@1V6bo2UzmwwjYI7NvGa+QuD3+jYwcDTQp52fVr+twH1NxBv1OW5KsOraG5EtNpXojg8Q?##
?@@BmorL/MRFvY9xi1qrptn6nOKaySdAXa3K6Y8sO6bdZleSkYC7SGA5Kzaajt9jXEr0Z6R?##
?@@I2RVMUsIjmARghq2xcc0Sru2tbn2aGCw6yV5OGPSN5Hd80MwKlRUuwHb8+MQxkFte1jW?##
?@@0DM86YRjLbHdMMsJi09ZU7c6BPlZvHl+aCc7dXSIQ0JKNdrxZJfs8fREhBbbQNGY/LTo?##
?@@3aM0Zgt0oRg+WYy1Gc/AsvIHBLYMFv9dXT4m/nwa2x/e1hNfVvtlAMIpXcLySd2PQ9FT?##
?@@mmM1RfH8TqcLV8mFtrkQp/JggMJ7J0E1HFZHBsTYixqsJuEXlMUF6PX3mjRixkY/h2dA?##
?@@e1jlkj2iL0tjwpKLafc8kWz8dB95bGcBldVX7FQ+o3rEYVMPoDOEjlS0O/YK+GmsrXA6?##
?@@6AEGMsJezFYXRxqF/BxSyURMxvuUqxmWkP9rJC2pqX6/vwFPWWW/VjB7nys3ZhXxufyM?##
?@@yfe2f/GN0XOIrmQp2vr10BFF2OtAbFtaSTHsmanGahjuBNXtuE1AXjpZaownONyg6RE9?##
?@@YoEI8bL0THlhhN4hixuDy3hFTluXFTkT5KYTWZG4y9DCx+gNgiW8QnpghlBZeQdei2gF?##
?@@szoS5wC3TiAbqTGJg65LYMZmnXDKMs89JhShNQIy3CCutu71MPO0Xpyk9Thwh7xhWr8E?##
?@@2HjVrE8dRW0gWZSf9z0F4AZAKww/m9q826a3nuyAYemrSI8YS4TkflS83gWh6EXT2Pf8?##
?@@SaoqUPAVtqqBZ780EL21BmzHIbdsaaqy8eStzraQQV3M23NKpssV+o06Xpvuc5DpNceA?##
?@@noWBp4DiHkREBvlorVatG4ZN8ZT4IO41HhnfX4xZUYKq08uFwWpiHGYQdb5j4/ew/3br?##
?@@i+IWGLCvKY79rOWkj7dhrbfFUBRrPVUfVesDNznn41G6TjDutk+PBVnQ6roQdzXEAGcG?##
?@@WCtJfZe9hjYAMlAmFDsh2dOl+yLro4XQaMEAk/K0x3xtQh9PvZoko8Aa2tGHL5m11lCl?##
?@@Nf6taDcQdDYoAxq9Vp3AayzoHMOSu58t9jm8UWxvifFuX140J+WVqdKU9xG2wU2IuYu2?##
?@@Co14kCppBhrjk5esLBOfQI8izEuSxUo1L97nJcaQB+/SYMouVk0WwPP+8iafQAn6yjEA?##
?@@UwDpw1lMUm0FTS9577ZuuQH0b95QkJCHtwqu2sAJC7R9E/ursbFm1rq1fP4qq3hh16zD?##
?@@PDsy01KPWYYDZJKKwpUdyhS4SIo7iAyqo5jz6qcuYmerBlQV54rlDaXlzBqoRUAgJvqk?##
?@@GQ6WvvinR9UCo0rgP/2rpmrp7mok/C7Y4ehr5UDDEQidQQw01v73cJggl2+lqeOn1mbS?##
?@@xt19dvPrUaYSfSApPRF2NtkgnYTdw5DyHqJ/m3XYsJ3kPeUhM8bhQYBaE0p0ahHNPdyr?##
?@@25IOtQQ2DiyyaNxa/DVWnMvuoHsJmFS8HC6a0PXtCcS6084bEZ+g8S5z0CR57H+xM11x?##
?@@RH/LliFynE7VQvmJmRBcWCaj5v9GUkz5X144GnGs2G+90zDYIqJEhzaGLYFBnPR0+0qp?##
?@@Ecn9+82HMpyZdsqua2QYhy3HaQO8/G2Y2Znzx4CFsyDZ5faQyQPlbmzut8JkNKpDClnm?##
?@@1meu/HtjqN8XPiRm9NxqHmBp24nTE5FZcauypjMXQZsrLI3L41iddekKQzCrKaLTebGN?##
?@@6xs/Oz7GzjSwYFWC6VsmbQwrIG6yvsB+opY6BdM5a6vNlKRU0yesHOLMa9V2pKMZ6eN5?##
?@@wKoKZMhOmAGEZ1GwAT2mlGChw4CEMHBq83HGY+zf4KXn5hmZfkPwGwaBVYXdIgOhHtdV?##
?@@8U+yTonSqLaOTpI+X5AOE2seK9lxK7dhI5SDTQQ5xDFjXVQwvVrWPUKVukwZhqWBaMYh?##
?@@mmM1Rd+nQ3VyAUE0m1/Uvmi6ZvnASlKY1LoGAEqqwJT60K8TVFrz+Nhp0JsK5jvIqU9Z?##
?@@M+2GtwB6c2h1YUIEtahhgvKo5nv6ZOTgXRR1zWvY91EA+gVa+Ven4dDIYh1AvTWt7S0s?##
?@@uGVyodtst0vKPmFa1Tgx10h/mAUcAioEIEr+r5hnr29A233YBqneJRLo9c4IO/FLIcWC?##
?@@FetKXMBwgk2jkGO54SpWUuT33TpNhrUvp+fxBVl/8Bm3zscig3MoCqbX+abhmbgLROh1?##
?@@9noRB049nedMy5Z9McdBW89zNjBsgQBLMWXE6S/RYWY6DqkyiL/tPwAAbLTqRqRVasyI?##
?@@7z6MnTeoByCcLCL+W7fS/YJ5XrYpmP8Q4H6a5O3XRmEyfV5TF3ETphcBjPqCkhWWnft/?##
?@@IEocKIzmU3Q0VrSbLZ/QIsuc8VhfMLFclxmM0nZimx/QgftmZ1PnWRYwBQ6BVtp7EMWb?##
?@@zRkC4CymT5tVjtkRswmkjZedU50uUwl4yl9J1l/1AWhZLDScVkFAVmzUqZptv9rq9eG5?##
?@@vpjks/xuXMzaIAoZfAjei6IZtctEb4flkeUwIxGmV0VEdl5a1PYB/vfMRGxM33FRyf3M?##
?@@49anePdQDFOfw4XPAMaLKKcxftcegO8Tm8wx1MXCdPSR+2LjrOHQ4pj3W2ua3cN15I40?##
?@@4L1tb0Umy3814GTzECJ6LQlVcQPu88s9V4sjsMPAIwUzt0vSt0Vxa1y32EK2UPYbweGD?##
?@@6QoZi1rlSycvBUgWXJuHyq5YR5te1K5PufBLIPggLKvk4QhaOsBRPtO8ughLo+WQWaFo?##
?@@hre3Xu0j3jUEAKkbLbYrJeokX2nhB4p0U1ImzwPHkdoi2xxc/NqBfxLiU8bPI7K1Grzs?##
?@@82DY/u8sZFAwCKl9oRgwDh7SU+mno+R20wdp3cImuwPJvNdKzlfqpQnf2AqdbALk1Q4K?##
?@@NPaZEEekQY2q0ZNtrsDl1asHQ5SM8kKoDQ1fGKXtnhkpwWc0ThOIK7O9lP2YTRZo+LmP?##
?@@MdxgB2FiQu6s8r0rBvC2SlqAALqXVmC8pekpeS6hCmq5eUVKp+7AEapKN2bnyO+vgE9L?##
?@@LsIn/uvDxOwIiGJrLhzXbnxqAp1El/GzeMeHkxd6wI9KcZYEiRmRI2VBVj4Wm3cpksXr?##
?@@K6ju9Na2w4YHaoJu73mU23simbI5da9nNutUE5EKDxwoh0yKMdKVoPiKA2TdDCIc0erj?##
?@@RH/LlrewS6GqfDkCbaPPbLq/800o/2EVlV1nWa5cUyMRsBSTVNUsFcIcearVby7Gy63v?##
?@@VREQdFl/N+F7GN4Nv7SzafA+sP5NzP4/zpIk4utd7PPa3yXVRR9+lqvJBG8UFLSkNVDz?##
?@@kh6cg86kvWIOfwlY/iQ+OX5F1tP8M0nxZHO8wywmH4Qv0hgG4Jn+BehfOumAvswf81Vr?##
?@@S7tRAKIo3Z0UGWQ6eTuZEWno7cmaMnKLsD8BsIdowbICovS7WFvwAZ2aa238yJi2BMF5?##