* C:\Users\User\Desktop\Engineering project hardware\DC-DC_Converter_Tester_Hardware\Symulacje\MP9928\Moje_symulacje\MP9928_SteadyState.sxsch
.ac DEC 25 1k 1Meg
.options PSP_NPT=10001 POP_ITRMAX=20 POP_OUTPUT_CYCLES=5 SNAPSHOT_INTVL=0 MIN_AVG_TOPOLOGY_DUR=1a
+ AVG_TOPOLOGY_DUR_MEASUREMENT_WINDOW=128
.pop  TRIG_GATE=X1.!D_CYCLE  TRIG_COND=0_TO_1  MAX_PERIOD=1m  CONVERGENCE=10f  CYCLES_BEFORE_LAUNCH=500
+  TD_RUN_AFTER_POP_FAILS=-1
.tran 10m 0
C1 28 0 10p IC=0
C2 30 31 22n IC=0
CBST 13 11 100n IC=0
X$CIN 9 0 ELEC_CAP_L13$1
X$COUTX 20 0 ELEC_CAP_L13$2
X$COUTY 20 0 ELEC_CAP_L13$3
CSS 29 0 10n IC=1.2
V$IPROBE11 19 15 0.0
.PRINT I(V$IPROBE11)
.GRAPH IPROBE11#P axisType="auto" persistence=1 graphName="OUT" curveLabel="I_LOUT"
+ analysis="tran|pop" xLog="auto" yLog="lin" colour=43520  nowarn=true' GUID="89bdd54b-5851-4357-894d-1298b10b92ab"
+ disabled=false 
V$IPROBE9 20 21 0.0
.PRINT I(V$IPROBE9)
.GRAPH IPROBE9#P axisType="auto" persistence=1 graphName="OUT" curveLabel="ILOAD"
+ analysis="tran|pop" xLog="auto" yLog="lin"  nowarn=true' GUID="ac4b98a7-cfb8-4bcc-a17a-11c9e1ea2cc0"
+ disabled=false 
X$LOUT 11 19 LOUT$TP_LOSSYL$4
.PRINT V(30)
.GRAPH :30 axisType="auto" persistence=-1 graphName="IC" curveLabel="COMP" analysis="tran|pop"
+ xLog="auto" yLog="auto"  nowarn=true' GUID="17f2ddbc-69aa-469a-93fa-e44c6f7e8052"
+ disabled=false PROBEREF=Probe1  
.PRINT V(28)
.GRAPH :28 axisType="auto" persistence=1 graphName="IC" curveLabel="VFB" analysis="tran|pop"
+ xLog="auto" yLog="auto"  nowarn=true' GUID="92685c8e-aee2-4e95-b8ab-702c2f2d01b7"
+ disabled=false PROBEREF=Probe11  
.PRINT V(20)
.GRAPH :20 axisType="grid" persistence=1 graphName="OUT" curveLabel="VOUT" analysis="tran|pop"
+ xLog="auto" yLog="auto" colour=16777045  nowarn=true' GUID="7020aabc-35cb-4cdb-9bc9-9883d58dce27"
+ disabled=false PROBEREF=Probe14  
.PRINT V(15)
.PRINT V(25)
.GRAPH "db(:15/:25)" Curvelabel="Gain" nowarn=true yunit="dB" complete=True analysis="ac"
+ axisname=bodemag ylog=lin  persistence=0
.GRAPH "ph(:15/:25)" Curvelabel="Phase" nowarn=true yunit="degrees" complete=True
+ analysis="ac"  axisname=bodephase ylog=lin  persistence=0
X$Q1 9 16 11 PWR_NMOS_SPICE_V2$5
X$Q2 11 23 0 PWR_NMOS_SPICE_V2$6
R1 20 15 1m
R2 13 10 0
R3 28 32 3.303k
R4 18 0 40k
REN 14 9 100k
RFB 0 28 1.268k
RFB1 0 31 51k
RFREQ 17 0 399k
RFT 25 28 22k
RLOAD 21 0 6.5
RPG 26 27 100k
X$U1 9 10 11 28 29 14 0 30 18 26 27 0 16 23 17 22 15 20 MP9928
V1 24 0 24
V2 32 0 0
VAC 25 20 AC 1 0
R$VINESR 9 24 1m
X1 11 12 PERIODIC_OP$7
.subckt PERIODIC_OP$7  1 3
.NODE_MAP IN 1
.NODE_MAP OUT 3
!D_CYCLE 3 0 1 302 M1M IC=0
VREF 302 0 DC 0.2
.MODEL M1M COMP RIN=10MEG ROUT=50 VOL=0 VOH=5  HYSTWD=0.05 DELAY=0
.ends PERIODIC_OP$7

?@@--START ENCRYPTION: "MP9928"
?@@Y4oCRuunVGRQSFUU537d9dtDFr+dQzkjTrZZSki1v6w44kl7T7cYnpCpaW3GSekK2ZwP?##
?@@7CQ5kH7c4+a8HJ5VYilZAN2FIjVGtgYYUmyqtbIjpkrlaj2JmCKpy5XfnC/EpInyfjwC?##
?@@pcHoEFsu2ph5wjtw+9hQ95OR5xzm6RvfYekyuyN4kWFMfT1GGFEB/DcVw4cdBdyyXc9u?##
?@@mmM1RfpSoW/eX4ljvR4g63cOq1j3/wiqdIhky3fxGjQMyywVtWoK1jy7LuC766vLP/rW?##
?@@ywjcMNDShjDPb/TEQ+EU09WxOCrPnrpZjZPt8l3ndB8MezTv0rRmaspnafQ3Z9IhKnPw?##
?@@8Eaf9WQ3dO5eDEKKN7qSfaqfr4d2mKa9DHrbViuyw1zdFocQL9lDWyocxO+mSeDXRI+G?##
?@@5ejNKSJYUozkF7VXmxXLQAcVDYEKKXamqZR1uD/zF5Xdb15fC0E6CmfZYWdRMkch46Go?##
?@@Qm6l5UutcoT5MSxB6WjKVsNtNcWycQ11bGzQ+pCXmM6CPizZar4Gzx+b7ZxZYwJdaVyW?##
?@@82DY/shItSyUwZ+i07LvYNzQ81V/imJ+aPFlpoVx+DyxZjcTNJG3+dmamyGSlXuwoKc/?##
?@@bNfHZIKVmAjiO6cM7p7uJakgvEdY1ysi2s4h6FaoJHnLF8PA8YIcQKhXfXZ0wrB3xl74?##
?@@FetKXBlsvwSq/+pJPxoy8rRP6KFVkOiDiZmx/Olx11f9LVneeM9wcqx7LWOwbeYD9aUX?##
?@@1meu/OYhD4m+pZeOQz9FhH2fAUUt4kxx5DWaelPzUHMg93WQOr7TqNWFe3W2LvcR2FmB?##
?@@82DY/gUIjR0xhwroYD/Sb4v8NMRFypM4tI0W1Ro2Juuc0myjmUnDhQfwvfbx1Huyv1zL?##
?@@bNfHZJlbG/Ubbaev0A1LB3OiglHok3wE/jbAicb4/2g1YEyiYiuJmS7QKBn5KIlI3hcg?##
?@@XVaoN34wiOR1SL8wy9AU8GHi/Do6h5eDuaTh3Y4dJVYVgK9jTjZ3RAKIrt1UQN22rJoP?##
?@@PkxYgwcvqsnsKNqAJOqFivX7O3sdtrhAroQGCUJ8guWKmqyI/Rs7LUMaQMMCaXH+jtfj?##
?@@b/EAbpZcfTIQykNo4IzdM3zSLyW/YiGazoM8gOXJCWlpveske8nOcvI7Kajc+zySCjKq?##
?@@sCDZ3vvX1CG0HaU9d0CZdvd/++07TDKj6c/+DdayaJEw3ULF2hQKfAHpBnkguE+n6dsd?##
?@@PUNFK3zC3zlVAJ9yrHP4ZWjVuM2CRrsVUhCZG35oyeAueRIF35xx524AvDkwDwNH8jjj?##
?@@fnIem5gveGAw69ZWtGFlQqzvM82HzD0BBjva6gklZTOA/IykIZGOPescZT4p+ztPvLso?##
?@@94IkYAHnqpf6nbgZlgzxwU1h8CrMJE4981YwEpEG9czk3A0aMWOve+VJz1kaASpBSB9C?##
?@@7CRSlNxPyFlGCUJu857StmkbyZbl7ikZsaYtB5oF+G0b0dcTVgnYm+uhKM2DvA3gzBae?##
?@@JXV74g6uYF8JDQ9SQ3AZKKeivQL6yH7E1eG3p++96D4pWIoOwTfbj7EOlOKQhnt7QTdz?##
?@@9noRBzNX7Jg39BGtSMCHJ3oq/P9He6p9ux1+lhWfCdiAKFAh4NpAywmmyPy1zlnlVFNn?##
?@@12/BVF9wtB8q9pQZNIvb4wmmDbkVBtcpGcIK+K0Oz597UH5eopxMI8PomolMIvuiztA1?##
?@@KI+06+kTqRZ8r0KovyahaHfMqQNmcXDFnCiUinPIpdp+qjemAR257/dLPR7FDKNsK0Xx?##
?@@cQImHnH23/sbFSRWX1o+0a+Nkall/AJ8qUBSCag9XOnk4xh9Nn1iJ1U/Qtjjo873Iu5K?##
?@@Jn2OOyg+AktKiVLuZwzP0TNPqI2yAn5LmB6YCvk6JX4258twGdcmwqoZH1ehINJet+X1?##
?@@rxfGhTvpnr08KznHKQW7ETMECWQITFBVFGnMWLFiqDcuJBBhCIg4beOfIC1Sxr4gALzQ?##
?@@9GnrV3IDn0Yb7tT6gbHCRs9ToM30Et1lJ+Q9eSDuOEhNlRkwz6JKN2sfBgR+nvkvrw87?##
?@@OSH5ygptYkq9frzwiqei6pMC/W2kviohCk6gWKfY4WiFtGaWEDDDAlUsIrNDzPPIJVRE?##
?@@4s6TIDyM9rCP+yJWHTI7wAcryt7aBj13H55rn5PJ70GMzyX6eojpL0o5ZkKHD0X74+uN?##
?@@Q3e4Peh3lFAUlfvnBg3XnHsfJlcFtlv0wtYGWtqaePvM0QvfvU+ktgX9vFG0rUOYyqSm?##
?@@nHRb9liCm6M2UuUAw1143OpOA7DKKfwTp4NfODZphpJNvvo+417OLdE1wsum9Pi9SZAm?##
?@@IVIvgYT4ju8N+KxujC6Ob1hkzEGKMjQsQ85BfV81ljgsi+erOdppUvBSBJnK80M0/bTt?##
?@@IltC2f5FHihK8VVG0dFJAQHazDUZgVQ7waoVQt3nrXVDM9FR3TzRDNA8Qq2fFvNxm5gv?##
?@@E9ojrDnqpTmZZUP2Ke3KiD/qM0YaR4BiEmGSEcDRrqm57AlxQjnNSvPtblK0qfvLvF3M?##
?@@+Is3uDk8FIu/kIj7SfkwE2cK5L8I2DbvpFf9hJ9xDIg7bv9+IbRJnFQRju9SpDXxN+so?##
?@@HTDiHzcwnJ5+acxWKG+YBSgtmypj7KfICDKndC8QJ3f9tGK8YY9H/L40cUHyloVT29nO?##
?@@YoEI8RqY+ux4H05IgQEc3eUCxJDoYe6SrhdngMhfrySdYL9erkHA3AL7gBONPMSIok1A?##
?@@jwRjeWXCiWwjewZjvKwk74j3XTmrM78zYljQcieWbFu0t5zQKzNrdu22EaUpQFXtmiJc?##
?@@lC/CM2kZw5s8xZRe7DAABlEesYDdP3gU+iSRcrmFSciJyzOXpSJ1RjZHymYvECGvrN7B?##
?@@FetKXG7z4mrWZtvsjxD+GheTE7eD8g1vXf3Q9t7GFT8Gh9ytvHb9Ieu9KotUFGMMPw31?##
?@@RpDxRvfgh2IF+3ibcIxV4qE6fcWkbZnSJzBp6CI5UkFGbzEN9YUOxRElDDU6QdK9y6EU?##
?@@E9ojrLkr+VB0Kg1k/l1dRag2aHImf80vR+DglZlecPsA4sf+HNcRjuwTm1sXhqnaWVwo?##
?@@8Eaf9XAkkK7nRg62Whe58cOv0YdhLJHfbamhH5fwl7H8yMGnj6ENWotHENnDvl3TyzN9?##
?@@RYje7gvPKWWpvI9EeN4zK4t7j1ObSrAN2IOK0kzk5yiuvioFtcLlQNkyjdwSkewsGYza?##
?@@+pxeaXQJdIVik2VpDzDAwBBJNNLK9liWYD+kqN24ZBQkmivH5R/RxPIJsqchJuKKJE4C?##
?@@t1xeSEW8P72X09BuNZhZoJ42SrzWdstlWRWiOJwgvWwiFMwENSXFeJ1zKmJ5mGFdH+k/?##
?@@GAWDZWp3+umn9Vz8oNI0ycicCin4TsmwNBO0FeQr3hn7zt42uq2467jOqz6cLzG/DvfU?##
?@@OSH5ylYek7WeROUlPa/ZP89731PG9UpZnb1pf5AI1iTDrveFYluVPNEGHs/G59bNOdw0?##
?@@kh6cg032k1so1LUNEOtc6pG7Uw/6wy9pe58mAkHER2arPVemMcvUl5fVNgs16s8T6Phl?##
?@@H0EJ0L0zb4GS7vWz8u0QPhNHrjX0TwxuhqJ5ZUGL3ivIAiJOjT/D9yXqvOtbai24AAiL?##
?@@zBHviMCDMIiVTkfkIC9aWq8zHGSALs+9FA2cE1UkaqTOL4DgrLeuhADRZcYznuWDjcV6?##
?@@qeRTc7i09YpeXiQ41tlQN7jo25tSdPN2OoYlvDmDE59tbnY6jOBme6bPziA9s7sJcZTc?##
?@@5vDggvUEkxxudMObwOZ7/ZfKnJs9mguJRwWxXKVPHaOUEtopb0QEe04M88AWf4l4vDsc?##
?@@P1Rs3FlIqzR5qF3oqPDlFnmkdd7Og+7z4cG8jxmnyxIl3ToddoEjqOTU1W8l0ECmlFMR?##
?@@wKoKZOUYtftCM/vDQupHWIfHHwER9ykWwFd68082SF/G0jFbpulISEmhofsI3d0K7V8I?##
?@@zRkC4JmElLkkjZPjWGNnb40mvCqFPx4HZqIMt8eB0vLFJYuFYiCslfCvoYL7JLlemR6t?##
?@@VhojzMvqnljvbB2aB+h7JB8g87o7/O9sOoYGiplDV7aAZCTXH3GHLmknMWZw2n6qlCwK?##
?@@/8e9I0pYZX5VDcQu9Xq/DTjVFFXGA4RHwcj8FEUt4dz5Qac8RB3y6rIU5jaB2ezwL3CQ?##
?@@/K2EGrEVLqLknyFQJTG+yzvMhQfUy3DqD/lVG2ZPopibqwTOnx3sn1pIFs/Y5FzhBErz?##
?@@nX1uT+Jnxqk7tQivK3WhYPDHaBHaLy5KgaPIl6kiJYfkPjtuU7I7YAji+nFlgy0lXgKa?##
?@@jvxQIUaACvNdF2yILPROCMEIUzolMR2BedfEIihK9hY9lzpTlGnMe1KLn//yVJ431SYo?##
?@@/8e9I6VMvx19oIWwu4HnmB/tFYhyLosIQBlQfW6wuR3sIWLRnO8g0d5+zIPD25mKWcNK?##
?@@dBxfJ7dAJqSF0dz4cC8U86EVFUJPRKKwtGEvB0NDyxlBtE2T95UBo6qwiMNIppz0FgCs?##
?@@zRkC4LoK0BoSPK7TUEw7lswXmmCiMyTX/nSpaKviOJbdRHOBbJqHIebphDJWiyJX+CGR?##
?@@NgfAwc2z5ai3eEvDV6B10YNLILidoiiQ3DMmN6zypdVLUb7tMTZnNkUW4aJoyDZeZ6Z9?##
?@@A1DyJvfdjtbo4HkCH8J0X62S/CzSOiZ8aJppz52gDZ3ul2Jbi0h07huA7ffodVw+ZwjD?##
?@@rP6MfNnPR9NvZ+W6/xLVqRpvtKsSKrfptUrML8QJQJZFqyOa6dsr8sCdd2j/OIlnQgFz?##
?@@LboUpb1VZOt1oqytfp/X4TuHB9ab7LJFGnVT0MWB3RUIlviTaQr9eBK/ah7qf+n2a0T4?##
?@@cgs5d4/DjOOegHinQyC0iF9U+v3MPijFMEnVJV8mh/b4oxxcGy2kiojJr14hBY47b+jw?##
?@@J4ahk1FySfo+2I+qdzgPVK8uUw/PYnfMIs3t6Pi1DBiuK0uz1hPpBL47bL6KCV5szv/Y?##
?@@RH/Llsryly0tiK17Gp0GXhcmZUKNe7OJeFNYMcH3JzPR6M024lSMMHqBM1BCGL9lx7Ej?##
?@@ha6kBlz93AghjcTeeGOs0TYnyhbIYm6gkV5ZCxb4YA1Gn2k2YYvzQgscWJqT2NLXpe30?##
?@@LsIn/q7yTDxemf5vve62WEwzGuQnHY/XkbseBBX0wiXj44xo9t7g5dUQdbJqG4fwQxHL?##
?@@B3M+h1YJGGoqgG2iHsYnAzB+ZA9l67jLJ/2sLZyVNue1M6AlVdmaw5F5jkU6JoQ3LLSq?##
?@@ZJIuoob1E2XiOLAgNac1Li4eolbGg73hkPXsZlF8xW61Tv37QL6EYGLW4GOUUGvMq8TT?##
?@@IVIvgdL5h7OMvhmgrmfzQUqrjWlrLw/5YlYkpDJrx5qdumULK/g0J/Va48EaLN0UkW31?##
?@@OikMIkEl7r3mDlVMpiWzPsLKuqZ6NjFtKk35XSO455V2Kw9W08V2WUk8mLTxeSNrnuc3?##
?@@NxDTGeKfZSA58ZDoGPDYsgW54uAHx8t6alqS3h4XN+EBsBcjI54SVU/F9bbCYOEXQgCd?##
?@@KI+06wqCMmrkka419wrPMYKj8AO2gN0vU5cQr5r2nBkpYWZ/cxMcMr4cmZMaY5pRHhGd?##
?@@oZ+6sCkcYqyd5LMrhBvZRSzfp9u/QOQKOTU7TzALZ6wG9MX4EFj1JXVVZaYJgNSgUi1J?##
?@@Xl+7j2XFEMXFmMuBwxsyPzBDtpqeAxgxW5jMAR3wcCmV5I+xt2FLQTtjlEttlH8DK5Ux?##
?@@a8+0DIeVS8JAW9JyBHJAj5ycVOxRHmH3/EmHWIKCnFdklJGk0XsqZ7Nw244rDgdhKkoR?##
?@@yO6jJi1hwMsXMCbCQAMqEjiyOFH0sLzYrjbN5i8lroyg8odcw9ZgMgb9mOzZmXXsVWMa?##
?@@yfe2fzpjpbdDJ1abaHmJjSTKSrUGpzNfb8J1seMx81ilV4LAjh6wfN19dMigIogOmOCq?##
?@@rg+zLS7r2GLbXbFWH4cXizOt+/5teI1EaOLAIhch3G3wDJG0oPzSvGsYx0A0YF+5OBxN?##
?@@D7jXSnlXJoBsOa3RvVqFo2JqOX9QBWftcKLxR0LRyvZPncplxf5kttKtmf6g3AOAC31N?##
?@@2HjVrIrsqXMpDuWwW/TgrI1O/PMkGZDdnwZT7XWD92wzUPWWq8VPMVcAzNKTcDApGkg1?##
?@@GQ6WvtVCbR+r/mkSDUDNpqCD3si8IeHHtrbX1/aUFlmbr7jh/svdn8B/tc/FHUS4ppjv?##
?@@AkjfzbKh8encU8iT9FC1NoIdWMPajvbSU2gr1/JH8xyYJKkEVf6qf/JjAhLi/FKwzXEG?##
?@@szoS56SkheEe9jARbsa+0Hf3KaHWVF6364JMoClu9NiRGTbqHl89CPJZU3s1MKVExAQO?##
?@@cPoTxlhev8w970XCVWglxxb7pM5BT/+XlhdJjICV5x+P7Km28sJHfci3ifA7PYCfGvW/?##
?@@ZZtB+iGg6qwthEFAN30/mC/yMNF5uFUY1QWENU62YKdnBS3S4EZJzrqxQKUyyTMVH0gy?##
?@@Hjn1eFkxTK0paBbw7LT8xJmE1gSrNTyenYLh4ommxCMJXov4QCXuxJ9F1CwwZnu/S07v?##
?@@P1Rs3Ijy1sIYMGK3QTtrBqgBTsPAaYWLkjWqlaNyyU0+7iYqFie4NOsgB8SUZ/AiZiHx?##
?@@/K2EGiE7zzykOlvkxiFKYJTyW1h9oXyxIl14JRI3HGR5i+V8lD+aT4rv6GYobYzHsKcv?##
?@@pcEHEg6ZrQjnZdcJhTQzk+D3ILwNfItiWM0RXgxUbNwfAWRFlo4Z+wd9DeT48GR0XkP8?##
?@@5vDggmIkA7xPL78JAl8u/0tGN0HQpjGa+L7vvddDt7PXg/BKzLxkmhTzT+ECoK0R7D3e?##
?@@UwDpwx6az6YOWgdyjeStV498xNdnYHCIUERyIKWItrWYQFJYRS1Yed7SXVcsZjlQXQ3j?##
?@@qNtAG+3v3FM5u1YeFYkCzhy14+8A/rObEtFMzoQuFF9h0gMPYtsxZPsVoowKSJGZrS/K?##
?@@8U+yTrGmTVw5LQ09J2VQ2SGQ9cLbEH+lA//LvshrPKNguWbb1hv18MXm+abvn2PfAVpp?##
?@@ygDJ1/DNz0I2n/5v2/RUsntuxvmx4c0Lcg3heJsyWuZicoIvVhzHjrO0Y/4G3WjxFhvA?##
?@@szoS53zCOoRWNMQbUNcJvkVtzP0BFoZyK6ylDHmCAR6dw1YYnzTRZFZjlXiMbDgTG/oa?##
?@@wKoKZGlg+qgVS0e4H1AByzJHLrVX8PKi57iogSGD9gjGi12+d8mAG7OKYzV3ImV07yEZ?##
?@@7Sxl7BSNlnqZx2t6mw0svBtA6mC68lObTgL8qOHslsOOg7ckcX+APfLNQzDSKlfxX5ag?##
?@@Jn2OO2xC+h2Sh0RPELmyPFAwKDIb75xqPK6hAa1rFEldpq6wxlybzN9A10UO/jP8UykJ?##
?@@37RaF2v42YsPyVz6B2HrNFFQ7NQ/01Ley+vpQGK9PlbImNo67ooqJXaJnrt5/af1uOlS?##
?@@gINETHTkkgi0zy7lga7lwF97cJchUyQ/N08uSFjTXUUifHt2+VQHOCaxqqxIj8FTHDfn?##
?@@8U+yTmmxzUptPcxXYZYa97dXsvEew7wO/W23dYt9+Ow0bV1yEKzuhWjmK9dj89C/cICb?##
?@@EtEQU0QCYHXBCXik6/kpK7elYpbiqTMVkL+nDdIKXFFboIrg6yNoHocSUN5kIi4U6rHY?##
?@@q/V5JGh/YXwwVLQepsKs8uw/669DyLLlLrOLurhJ8mqC1RXR7LvXp9XBQJzueygUs8Ug?##
?@@EMDqojngFi15sJ3LjIk8Yb+ocXTJ1DSPLsCkxThq42+n5BJ+OKW+gQ835J+Wzg+mrBzY?##
?@@HTDiHxKi6uUfR2H66KvadT3tl7IDLSiBy/PzwJGadScMFZKz0HGC00sz1IPpXCJMTeRZ?##
?@@MuVzX0ey3koLHeRqC+390zSVOKkffl6kK/viuPUlyKCQyvcVw73CA5IyvftLeW/sKZ/y?##
?@@D7jXSuzryxLuri5x2H83DeFtdREfnDxJ6b8Ahw8Pxhi8JnjKiog7VHuIPIul7ECncIJW?##
?@@jOoqcM+pdG+mrWRw4SIKT+m7M/xsZADAo4OA15SKxQr4lNcn8i1s+6rnbBLMNmTDMm8w?##
?@@2YHoBRS4KlpwwHi0x+NeHbxMAlab9iRbofAyJUwF1qkUNMdgHyk9voOPfgo8bqVpfy+/?##
?@@sjH/jpUEIL/WAMgnIVgD9I7EdWmuC8Ji5oeEmb6VNRxgtxiouUGZ19b19vh/1x3uMIHH?##
?@@I2RVMfFXD/9cxKyAGAyUUhAHhqlkjLPuOrGAkDF2fh2J3BO84FkIWajiMUatUeGt5KVD?##
?@@LLEBTULgZo7WpGAMvhYy5pZNU96aKoLCFqC0nYb2wgtEEhMYPRLxQ90MN4mLwwYSAXx8?##
?@@ha6kBiqM2PrJXjBOfSxPFJ9I+1PBy11zX7fiIuCj61MG2tcsrlGympuJGa32BAzgIZxg?##
?@@psoaapwkMEQEDYn22FH8u5FDgQkB0EoeEtvkH+BhI1mTcuv44HWE8qDUycO44mAlJReC?##
?@@7z6Mnc2Bg8td7LABIhmoK/qmu4JxEYUUL8G9kKDQ3nwY6Y8+Qu2ngFIAvGPV8bAsZdw3?##
?@@6AEGMnyC0I0egrUIWusu4jhlLmVIqBlTgryT0cCI0EDQWqdIjAVIhmiUIEAwfOuiosMj?##
?@@oZ+6sOsbUznBoHRa8SN4qIFDOnwIIdQUCuNcyf8ngVLOmg1jQKGE7O17ata9HwjDPdVA?##
?@@SrM+qO+luULDGUmRsCHNE2EAol2f48T7X0cVSj/IvDzfKYN7Hnkr/faXr16nbNZjb1KF?##
?@@A1DyJtmhAZkw3K/VGqFKIDyN7HJxwyO2niONZqLBB7yYeNi5sa70aEGP9ZbXgB8kHUYh?##
?@@dBxfJ6j7tPtFdu41o+3DK6umKQV8PAWnxe6u/s88wmYZnz0K64s3vlhgxYYaa4QNLUHH?##
?@@AT/MdcVBOGpoACylgS3UJTik3dsnAYZxnH3Q0APV+GNHEZkBERLfaEzphlMh/s5RaHOl?##
?@@/r+qyrwJtMnqFhbObi7nt4vOv2lGk5c8gKyXQ3pzCa86xeRpvvoR+MCdhw8S8Lrgsfue?##
?@@R5kEn++q8++pUauCSkpHfo8572ZWIwCwzlzjJU0/CptzdwEq3aRdIXojKHCACra4gs2t?##
?@@2HjVrOnN+iLkp26dZAn+uQszUm1Wol6LaWZhWROUd2D6CqY7+c+hAlQy37J+Z9WAwRmP?##
?@@nX1uT50Mha/MZHgChvZScjOMV5CCYZUfINqQM52Jxv+LlUdCiUWOsUvU/hPBPg1HQZon?##
?@@Qm6l5SQTRXTIW5QgJpDN8xVTMBSdL4WqrqaykLpCj50LKzS9N1R/KHi05YDFcZ50oMxm?##
?@@W0WChnfE0gm3Re9hohZ66NqhIofS5uvPejCHZx3SEgffdEcAC16/XdRPhG+2MBkZlYTe?##
?@@CHtR4AQTl7zz5M/974EJIIchMmkJbIhN381lBZrLcy+F/Tpk6zM8JoTrY22eqWWGAj2Y?##
?@@jfM9yV2G+pAyNWzGRPzv4Em898Smw3LC+HrcJJzj7wHXXe1zC9pH5r3h27ppO7NshI9w?##
?@@TtWKCbM3cZFkembpMH4MWuPmW9dVnIikUqet1FzMWYN8ZmzNy6XbjcTdQ1Rd8ygbThUR?##
?@@Z6xnq0GXaqbnMBKu8C73IvTRxJalQxe6KscSn6yWCFI0PasC074J/rULYR98iecGHyiz?##
?@@7CRSlGWNZBn7aiwuDCvognoA63cjBpTlMiiBsg7ygG1WzrOdPPbn1CuexmRsZi2CJIQV?##
?@@2YHoBdnqBGFX8017KxTVeatg52pPzlG5cTqc2LZ2kdQ4XwBIljR2y53tI1r4tgMy51f/?##
?@@fnIem5q4sSaPh+EJXkmj5YXi1OWh7e3lHUeVI7pWwb5QWkvVp77rN8DfoBoPv8RGAIQ9?##
?@@I2RVMfnxMUQ5SrbJrG7BvZljeBMk9VLSmm/C262v2ySCfpmZt5X7YdMQycT6eAlFOKdV?##
?@@wKoKZOMrcM+HLUd0RLodBwj781L0X+C6LQGSMYNvvpxo71eJ8uMbspx49v+9VYsZWhCw?##
?@@Ecn9+9kr1NuYNTkGMVuw5RgEkcHLuGSPZsDAfMYyAEMyk/T8SJYJRJg+/cvV89ZIQzCo?##
?@@vpjks2LXSsPBouy3EFLrN+QiauTedDpC45VQa3sbytuWRql+zeung2XM4iasT8JcrOL6?##
?@@K6ju9H3UyuDvBnS4XCh3lfW19BxL3UoEkG5+M4li1sYn4iTqQOxYDt0a2Eiu7GJ1QUKm?##
?@@rP6MfCOwSnnM8+xCeDSdFAO+7tQcoPIiA5fJ4rQchtFiRUPmxPo/RIKUcTacJOtPBsaQ?##
?@@gYxYpKSP3l2SyvBj6W4Nf4eT00sUNK740+nOuOsdwX4UdfeJ8ytaCegAIgTrgYRf04y1?##
?@@3qtHvwMBC5HJfTWJU1c72Uu6laZUBQd4uakHRX8Hgf2/thx71zUbp1pOfI/3NHVrddCr?##
?@@E9ojrAb9spViMk/VXp2Iad1iOz490f2aXlAqW86PwNcHFzPeslD1zn4xMdgZEdUjgu7p?##
?@@MNNNroa840ndVWDgwzXon2x+tMaXKCaPxOWIU/v1TWQG5MXtjF+JZcIOnqEq5yy3V+5x?##
?@@AT/MdT2iv8HBlS+Q/Axuw3K4mz3mA/BdNEMaMLES/cAq8MOcHorCqu+pxq+rWYBgyTK8?##
?@@Co14kE1cj9lPC7wiM+SLDN4wQ7M/vUC1f/iu4x+bSF95iwZwIukcuAH44ECS+3dcHjB9?##
?@@82DY/iHtzDJmGv4XHQIcsZ7wZ7y5NVZvGmO8zGsKs4uOY2645yN1+RbfvscwO5lneupP?##
?@@vIe+AtAxfKbEKkPqhq0CCmCTGLZIqAIXfDFoEtvn7dKcSwhkqFBfnWgotn9h1poAkUtM?##
?@@HTDiH6Rq/bhc9Sc99Ftgp0I39meL+KUDMuc6u/NAXs8xfkbt1Yeyq3dTWyKERRqC95h8?##
?@@8lfFpo2G/pRJbHVQbpUaRGKBqUfY6mstzq7ZbpuSvV2fpQ6sMOdx+UrhhTOSC/SKrIQ7?##
?@@001180l1Xa2gYhhrFPPXH4mPhhYYpbrWn+cFq3A4FGEuJNcR9MPouaMAhSZ+QUaAZcAX?##
?@@rP6MfDgmjOeyleExFDOtYPl7oGEOen9kzLQwgYDTByXisMXTQiKtVKut4TZKJVUpE6bu?##
?@@8U+yTnYz+2wYJ7iVJyguvFYIeZtWJmitzxIzHyLqS/jv3Q/BEGMN/XaH0RileXlZjIPD?##
?@@bujtFbEk8JOFBZlIIQBPee7Ygz0K0OQobJMKX2Dw8dIWoekJpNcL7+DmM+sMaV2fkFlz?##
?@@Q3e4PeATxaW9Z6i9+fx56NvEc58uGqH0PStaKVU8NkibLFWZyWVzpCfB0sGsL8Hd+44p?##
?@@GAWDZbQOb06ah2f97TDOrTO9GXi6GkKjII0N0A5kXQNy7FcBUECo7mfyLRY4mvp1NEu8?##
?@@Ue/DEo7VMXL1mJrPcxbxAh9+A/b4TAO1LqGJYNg5CNSoKP9g6lO2pHIy0ygTaPfNXuMy?##
?@@psoaap1fO319IooudwAA+jo1VAlgExkd/+PMkJ8csWPrges2IdnDsFS94pwJlasOUY1Z?##
?@@jwRjecQ6ZcWxOlG/gsjAF+nsZ/VPhFinTV6SsAcTtHktpj3JvyyOQnECIWIpCn6adpna?##
?@@CHtR4LQdOlrcePsQWasc+7yeVsBNc9IUYZI5RgItBNG7UewDAXGJ2bzEC5xybB2V7r7D?##
?@@mVoi7eoqBiybmFXwtdhD1/71InxtFISa/eKJevpHosyFrM/bAtnMF5rv2YGjGrKyFfdn?##
?@@tlRL8OBI2zDGkbMtLDIm3AEpyjIOsHxYvaftTEP0atYGa5YDSR6WDqNOY3rtdsxalein?##
?@@jwRjeQPVXIYLJVnRCiUiCBTd9RGl4rerOP5DK4cunyTD+koyY/6I5vsBUkcem0lSbfOR?##
?@@RH/LlrmV+GX68RedKzvNVpKswoNdXU/y4Hn6XGsYwae6IYYlqrSOw7SfNzd50giQn7l9?##
?@@fWkLQ95ZIWXBBrv6E8ToOHaB81+9diSWLpXzklPmN3I07PNAEMUx6+KTZpp3exhPzszn?##
?@@OikMIj2HwviVttT7dHvq5wN2ZbUukOHGB4lKGr33Vhsgw9/Tzjjf8vymB8UXgUoxOk0L?##
?@@zyspkY6o7VvBVyJwYasS43ljZVTAxLGSz6Km+XgwKJ/HGA2ggbCeS/Y4oBoLft5WnFpV?##
?@@4L1tb/wLA0kWcAjVRQnL3QUqjMk5CDCv/Q7ONVNLIbvx6uwfxSAYJW5MITq94lW3m86k?##
?@@BWIY1ogxI34cDc7KvmrgH+Moi+mj6pp1kCFhz5z5cJi5Ej1Pxp6mVNsz/nNUEigYQ4qy?##
?@@YoEI8Y4Ue4AppzHj5hVg+NBdLNAKu9VnrJnK3wexffeapPzsQ0i9vAOfE8Rx6uwCvdVK?##
?@@zyspkbzicL/3QSJMLCTP4S/Dtuj58OQiXNJiFPef6L3cblogkZIN0FuwzJbEem0WfdcH?##
?@@GAWDZZ9Le+G6xw1n7G8Q8mlq9fuxGf5JtjJSsXgKuapIS++PNGe0bt1goUthhG2xKrm1?##
?@@XVaoNyy3/l9W9p+oR46BYEN1aV4kJIRKvdjG0z8THV15OV7PrHCObNXr7T5MJ82yQH07?##
?@@quxmy/At6bEz7lVYTJzLAh9PEScp29Zp1uHpird2Blkr5VbXcFgLO7+QgJXT6bOOvnUx?##
?@@m2tInvX+13HfuY3WdJEYZPkzrKz+LzTUELJLET+iC3c3q9bOd65wiYg0YptXZ0CbVI6Q?##
?@@TMRkWaM0V079prdl82IQDExs0IUNib3Y6F6Zlx45+va0eqTctaCOHbovKw1Nur6c3cSF?##
?@@mVoi7ayTy48NeFXmdfIeheI061N5Zben6Qe47wPlSgVvBMC9oyEmwgn9g5WP2JIEl/+6?##
?@@tlRL8N3q33hU20LeIQcv9zF0Djfpo4VEQZV9UFpaIGmSk+1CMBa4lmocjo5aii/z2FRZ?##
?@@82DY/v6ohG4RMzSoLEG8uAqs/XT5a7UfCc5tUJmEHg18GnMIFbkXwwXMYPWWhOxlk3UI?##
?@@xMxXxXUqrr7R0zbcIyhqxSTlQZhsp166w6PIRuxhnpKJqjnXq2DhO2kqK/3fjEd5xW82?##
?@@LboUpSVRSZCM5Po6PQ18DzRLic+ZCcmUwj8HqOH9CtDG7OZZkf+rIJGLQJLtXK4TK9qc?##
?@@elDSOkVNRUkN9Oi/CGlU/e6dodXD8ZtYvOIjWRaJPALxY7guAMa2g08GdirS23H62l/y?##
?@@7z6MndRn2MpF8Mi17VXjBYXgQr1OpJ2HmZF1QbXJuDZNFk96XOFr6tPgCOhEv3CCqn7z?##
?@@jOoqcLOah//r7BB3wzwPXguGllxqfbfX8izUrERK/Z3GaPkmfu5Awwe75RGegBROAtp/?##
?@@pcEHEvPqrWMV9zWJZv5WIRKTjuS2xkWlLYOGjDHi7Oxbbdq/ploBsafD+OSPfvgnRm/J?##
?@@3qtHv2Qu30Vq0mxM6rgRKd8MCQU214/BUt/OsLEg44gX6nIwDvym+sEn1oFyWI+ogt0T?##
?@@zyspkWAFIfFlnqR6bMOvatuMKoknnAx5H60ZKbUemCJrG33mraV/b6a5k8A+76evdXoA?##
?@@ADe5Hct/YoyMp1oklHVWpSXHXZ/taenQN3m8NQPvHiDMW9fWRmF/gOh+mAO9iugFPzdL?##
?@@gYxYpISnQKiJk4MYT4OdHptoPFKJINSiiB4mley01r+gFys+ruW2l7g5vn5cUJtd4GDa?##
?@@gpRr/f8zsTAzuOwnzySWsiy4bckaAVrKKXzWRYzmc0IzmASHa09zDoniOvgiC/v5BoAB?##
?@@h7/Ktu2asSIr3mpIZ0y7vIWX38veskGcKQDNsoBiXHfFY+A9N2kwq0P7LKVKadFmeW+w?##
?@@1FaISwcJoG9w4j4heggvE1X+XCfzGPTe5RtdWTn+LlScn/Db6wsWMTotN3G81l4RWD4R?##
?@@zRkC4HCg14Y3n0ttQYDknWMaG//iVkyp/teQtILUa5gyjq0n+tY1qwwJNcinSX+IWEWh?##
?@@KqDbnIlJA3g4X03QhXnYNPCLWc1RNfZMn8z4HO2Ro52xbKhVmU+WUqcbZ2QXNolR8alT?##
?@@Y4obSVVzt2Uzj1wdIMmdY2XEa/4Wm4nqsUyoeSP01Gq6LePIlA21aFViSnTp25319lmo?##
?@@2HjVrAcr9LuNjMTroCbfiGYKZHpyYHCVqBw/eHnQcy5+REnRz926ATnQ1pO3AfTEK05u?##
?@@rQag1FxIpHQ/lMTOJV64rPaKJ9fmaCfNPbIq1lhcTkLBsWriRxVHp323zc92SRabtiZQ?##
?@@VhojzKWAIQTTxGhhE5K2FAUoF1apL81E1f+h92jTLMkZ6u9aIsnLZ440t+lp1sGD4zCM?##
?@@A1DyJsmSThCzajV05JGTQgES42meCzPPOuTb3dQ1cVrUHYVKz3xwUbRJ5MhE8nRW5q3e?##
?@@1FaISx3foj9AJNOaDc0KdjaEdEj0I4f8pzc/QOPZXeRC1PYvXh8VD+eEwy3b3vPAATF3?##
?@@DaaxmVovxLKKArvYODIjqPoKmVxwtEKyMlIUyvudwqC9EvAQ3JPkay3Ie1kMzCCTZLzS?##
?@@di2G2MUdF9A/4ocNIs1FdmV2u6Hsg/rQqqF0OnrXmo0yjpDaW6bxPXr7Md2as8WXnK8P?##
?@@x+aQzmH2M5FfoL3aVJ8uv9Qg0ARu7ZEzr7V1HCu4zj85l+iOJa2TvC52Vp+fl5kkhlxr?##
?@@FOM3BBvwoG7dBVHd/KC8rvRSk6uZ5FZumNIlY4iJz4J5e7Vm500YVMbPSks3s1iaMVQ+?##
?@@vZDRWiW3gSYtvK+l/zjIDMkOorJMTS6Rs89JdYYSwwNSHhIWTfOYi0kj4jGDA0UqMuVm?##
?@@SrM+qNW/rwl0+qdEZ0NoM3cGZ0qndHvinO6YNe87NOISoKZbtYrtwAB5U95YYxsP5+c3?##
?@@L8s6VqvJ8Yo2XgsKOsYmLeV45OOtPtGJArczn4+e6qHJegiY8352Cr7B+0AT0iC94qOA?##
?@@OBjmcQGmvtHSHGaN8dXD03aOUcpInfXoL0sxmIDg8rwYSqdlKzQmELlG5K4KQqvBV1PG?##
?@@6QoZi2UeJKxdaQg2NRbASGJbWL6oHbinza25RsYCgO6KT6WVjhruPNs7XlyXxLD8gzfY?##
?@@hre3XvwrQTDDgHxh5M0dK9BsHJmfBHXiIPKbHaW9KV1shy3eANBXcnX7Ghzd6OUfmKvO?##
?@@cxNMzw3X0RFZMv97SgOqazdfPpJmn5n7a5r4Lnpz29ZFewke5QA+AocWJZMGuRoqVSZB?##
?@@BFkFfnD/IoY1m94Hx78b+W2XbbkDtz0NQ++NIfmw2tbgJdWpmQKappCU8Ub+NdQ9Uq5w?##
?@@eUe/4RLB+ssuT/o+eUi3DAlqkEUi6jNOTbtIJ5Yikys5AA/jeVlfnqgXJG8zQE42+mdP?##
?@@ziIWOToCcoFk2cPxQM1kYIVt7mN+sULoDYittuX4ETilS3khN7o3i9XJ+ULzvqZMbjvg?##
?@@J4ahk2cmtxj9vYUFrtGamP1I4nLS8x5ZI6rgAUjxfGzDaf/jqr5z0nTGfRoOaSljWT4I?##
?@@+Is3uE64GN6ryD4dRANjg3iy+5s+nONX/wWcsYoXEi2f3dPT83wLUlnjlgsVNJPaQmuI?##
?@@cQImHq53eUwtrE3TkySqYEvAh/ZRnjymlsKtkQWr6Lo2L54DXDdzIuMCD0BYpbDWfOFI?##
?@@FvRdtR5W0PJwIjH+AORbPuP5lmtDIyAoDUlI3EYYhai+pgQ5Ns+eOPu0IEK13PcvjjNF?##
?@@Y4obSUNNbWLV+PnEgau3YCEdMqqOZf35YsL6Yvp4StakPji63XBt1jQOQat+go6SUYbW?##
?@@6AEGMm45CXQo3qtTsECca7GQFUDdJNGeh8yCnGRHKfURBgtRyAGX7yLvZu4XT+d9W+oV?##
?@@lTjVjEH3yElejIBxhQeJmzS8orwXM9Ec9xzMXu72JSMKDKgoVA+xaTv1J8e6NOJAF+iO?##
?@@RpDxRlTTRoZTcBv0HC7/VRMJWIYPbMZG6bwavfzGLKieE+nWzTdjPcbi6EKa7D5BeItu?##
?@@kyev2+cHhEjZ00ZdN3yqdwGGYSQma3JScHcsH9QLGFp5rYQ8jGz+L9TqiWmdNrejudl8?##
?@@zBHviKaPc12C8UNJ3UA47O8QppBvBF82DfmHQayIQ2x6NGg9X7SRBJ42yoyG9cjVoSXG?##
?@@AT/MdcKhcuRDieNz0lpy0SkewVnESBrTne7d+YCi9VD0/OQPq+GiJC9OHn+jx/nRsmIh?##
?@@/r+qyl+yZFcpZOBf6n0/3nh7aPGpxLAcWTjRZEnioKIU2z4IeNXcJOvtHI221Tq7y++1?##
?@@49aneDUcs2v3CCN9AzXUMuoh1ardi4umOej0nofspTRQmSGg4b8mufb3ADRSJHHfUOUg?##
?@@vIe+AnRfoC7krnez554+gJZhxbXeJbtUjQDwTgITIa1lZmJpbbAMHxigsBJZ2pJtQUbM?##
?@@idHwZ9FvM+YerUV1xKJneMQdL9BzSFSd40GoZfsFttr017fqG6XKmiR7qmAuFrrQuHDz?##
?@@AkjfzUyGP7psIoWEFwf7hLsZZWUWgL+YAjYHuvxS+Ktcudo7FWxjKXsHme0tdwIiGTNE?##
?@@n46U/1RCV1tIfs5QCLYFFVJ83AuJsYluVjEMJTrhmFgsnvRaFZQ3UaRMcueD/hkhKdvr?##
?@@wKoKZFe7C+yNxesYgX7g6Z5STSRp4OCaiJ/2SmA0aAl4WR+B8e2pnwpRezTxqx9sMYr0?##
?@@idHwZ466+Q+A5JCUX0Po7EEgp87YAFbJueFVnM8exA7BKB8Pe59SjtOTRVDp7EDeuKpI?##
?@@0kRimrl7RdjMI+8V7TyDpDveSjrxH0AbETkKyQr4J+Ld3I+A/sJlVelCtISup6rByCpA?##
?@@Z6xnqwmnXooMOXJaFgTiPzmD0XMKvvpk6Ju4RUgcg3mj56uwTjw5MRNIacZYLaG48nfC?##
?@@BFkFfoEKqbYqriu3GcRcViBDbD/OStPHsVRDwQ7hvITRGQYpanMvCZr9OkEzR6dx1g4a?##
?@@GQ6Wvp1KLXClUr0N6ndWkUXUV8UPXGk4lk8d3suHBSEi7VkXRa6y8n2rCWMXQLXqsZ2b?##
?@@Qm6l5TL8gR54a6uD0APdRv5WLZcDQrtxIPHQzqore7GjVOpEzEKv+TInxYNTbyka3yAM?##
?@@NxDTGedCrzGWyKpOa12Aud2EQ35p4MIlz5MeCRqspBBvs6A8Z9caUYnwzUgRG4ZuFIgN?##
?@@OBjmcYJmvWT7GgidhuZiEV8JpE2j/Nj0YX/eDOBHqo/MpsOdFU72D/0WZyk5l2ByGVun?##
?@@eUe/4WZJRHREOOychukKOazvChXi4LDzMIWcD8b384a6KUNWwvFO4W+hVYznIgbsyLos?##
?@@SrM+qLxyuf9iOr5vrWPzwc3EJTbIUFhZtP65NmV46q0yppAETtcvRPfO5Ziwopf6ney7?##
?@@u3+rqv7gycNKiFDu6B55XhuD3aDEDUyR89A3OSMm1WYc39jPojdSjMG8TV6oXmmD/mKe?##
?@@mFIPlUqkvLSMlp4f303WDH5I5dm9e0eekLkbbjXZkCLJntPEacIMXKENZ10vUBGABc+E?##
?@@AT/MdQ7ebzo0ZZnZ90TUtHYdxPvJVobD3V6U56FzZEuUYg4jEezAwlWEVCjZ1y0UgoKL?##
?@@AkjfzUe7XJX6MT95BcUnOLQ9GOKlz0H/t8NhsHE0ArN8uSc9L0PjixZFhCMTvSZKS7/M?##
?@@/8e9I3lwpqD5nHaLVuBgck5h/IDy3SjdWwhj7ypOyJeD+dFzZZR/hTkDj5YjTcuqjYz2?##
?@@6AEGMq548s9qs+IzIQ4isTah5rFKx08gzWYD3u78dUydChP3aOHCLklZaTQmpxoo1zXv?##
?@@mVoi7Y+TL1bEHqbUkxHCO58FtlznrYBxuMrQiQipDg0D+dvn8QZqJrvtccYwhAvjJSKD?##
?@@cgs5dxeS6MJySz6gYGPOV72iguO4vrGFM8aQw/0Zx2fCu0uAF7173lFKJiuNHGaSnEb5?##
?@@+6VxwfJOOwxB9kdmzf/zxsRf+RmZG4pa6RdinnaNA/Ki9cmCX+2Cw/hLco2GUtMXjsli?##
?@@qNtAG4QiJDEIbVLu2Y6phXSNBylOgtvNFuZVhk5chUOS/vsW1e1tswdZQeNLDDFAv7dr?##
?@@4cWAyFjGZsXt5mTaeDLwfFQsirC9zrHF3FdGoO+fEEpVzmBAGwuZO5Bh6h+Y4XpvdRWp?##
?@@KqDbnDWjKmPcfbwyDbw4dsZ4FnHaZ9yesNAGbzJKNt1mS1ShMevED0kGLcWsUrLwxKgX?##
?@@K6ju9CLjj3MTeNAD46nMm0352gB4z5tY+TdjpvIrbS+JFCy48aozzbyGEvW6uBD6P1SG?##
?@@rP6MfMwMpvnm+HlS0Qq2I+B7V9Zs3zVNP4FVxhBEilAu7SJgvvSJXC/j0mIf6V25DjIt?##
?@@OSH5yvOrok+3vJxKKDg1MV7SriBBoXHZ0Tz6lkv9bicDxDJ/XCWFjDx/WfoKdc/gf4PC?##
?@@di2G2Ddm4tLTULbUL0JXj7ZXNvmCbJ8CmXuMgKMBxcAXZ8/d2Nb1Jqyxu7tzxbTbEZLD?##
?@@l0n8PBfG9b7Ug8otEOYkFp891G2kDDBNje6jKWGUjGUC5xeyUiKjIg7eOoJnKhShEZri?##
?@@7CRSlBDUGwIKxIg/lRtiZGIrMM4c+zw3YMN1CXgRdOBH5ekc0EzrL0k4jRvNpb8wzz3y?##
?@@ha6kBo6CFtsV+Aky7xM4Whp1oJPjXPyRVsreao1jpQ4bjTJ+o2IgdsfjmY3krChJPH6u?##
?@@LsIn/ru3K6pJwZhXnqImAn1kRRlnmC8fppW6ggx1K+CFiYBKiAAqk5y6y98x7YPkaDAe?##
?@@a8+0DMzjkpr/1Q0RrGMoPPEhaPEfqEWFF5Eqf9nRZyXZtrJDKeuuEpyRjrpeC2yfLsj3?##
?@@gINETP8oLP/RK3WGSiS478jrBqKQ8qW0H/ctX48KM7An+pzO1F/QELFbbvYvd7M2xspC?##
?@@Nf6taFeV7IEZXbRyExRMvxZ7Dma/bjFwAcGO6lYdv/Alg/ltqtGPu60Yw50orhRLbtRC?##
?@@elDSOiveSVhANtwjYpPjDgLFNWJxFcULvefL6KtvC7p7MyQCMhHtckclhuqC7U8VPi49?##
?@@82DY/u5o+2gV7S8vEPL6cI40XGQwy2sPKzXHtW1mrKBYbPbhmuCWce73dEXI9KGcb6mH?##
?@@cPoTxrx2yVBSfa+ssLoRo3I5ScBBKJHnqANkiBpRoRSM81UOoHUb6jUBWdSAFCACthEw?##
?@@pcEHErDmPUBmYWQk4YD3TMkHv1kfK2gbFQOrQIvufPbsDiOIIdG7bsMXcosY/eCVZdZX?##
?@@PkxYg0VwZAyyP3v9c+MjP3dW/lFPfiUn6/tkUWiNJsozqIm3W1qsfEyph3yU+DESUBUW?##
?@@a8+0DGnT4NaBh9aCXqTt1gxp4JMYQHbTPNmZpIYiNhN9Qma1GEIWSy1tYCzHY15X7nwW?##
?@@TMRkWbKJsY5Wx0DMZaitJ3WuYAKgFBCdBzOuzVEBlt4f3NHKDmrXbtadkRH6aPu/YDUA?##
?@@7Sxl7OSDo7hxxTXnpIdws95FgHbmPXlDstwOSSPSJD0zx/nOScdJl5iyUoxKCaz0zwAw?##
?@@6hMs4x1K12KEtrLb5Hhp9q9zyUgfahvcZ+kJPhN2oqqeezTGXohPcB06UVJGZbPdRF91?##
?@@+6VxwX7DxMBSnWpz6eM+qrVxcsY8Ew9NC8qraonvY43irBexNBj4aKMoVVcylERYik/4?##
?@@YHDiQGDxVgtXiGBUbRV6Ky3r52n9WtBD9jJCRIfUu+3h7EEZ1uji297oJdjwSM5rHKXL?##
?@@sSnsNgtrZfQcfv2HGCKlhAaw+mLZsYXLJ9e8SCoOBRreYljpLMAIC8lD4nDZYbR//rDj?##
?@@di2G2FSuBg0EMIqHU81Flvc8jxGD2PGM6vjMz1UO4yI/bnz2M3/Crw+WYXZ8SldlJ/6d?##
?@@I2RVMfRABU4+F4D3ix/wJspZmjCSF4fpHpCqgty6j3Zc1I83U5UcWpj8Ff7mANPeBCdv?##
?@@6AEGMoGDrtN4+d59HDuI+b5RUfyZB99xTVJguzJsUW3SxUtKpLWgqnPKR15f2LLHakNn?##
?@@gYxYpEkQyZzPAJB59CFR2wwTiN3q76V3zpFKqFtN+iGVA+8sW9/mjMgCn2AuqncLjikN?##
?@@+pxeaVSRKUo86uuiodb96H+vGfi8wBsP3A+XOFoUvN5vxr306gFMeeFfs1yUPUARiFT/?##
?@@UwDpw6nxx358SwP/KpxH6QC6j6wCp7FpNrmdj4X+Vr2asYaay8hNdKIhYdWDQlDABojh?##
?@@RH/LlqILB/FV/nCC5OCihujRrU4JBSg95C9MF2I9WLAagdNtOoob4jeARfACcW2cuI14?##
?@@DaaxmTYVrijYqhrvYj8p5qZJVdWkLDVQplXUzqOobofFnQbUoZplPx14NGOvgPYNoYix?##
?@@fnIem+6z01HJAPp310zeZdqG0T3WzB7zGs1ClQbJL0kzt606IDh2hSbHdDV8EN+CHDOT?##
?@@S7tRAEurNYm/n5OSbD3kDqeBavDfPtL5nWFn6FCKGLE1wHK8HZhXFbb0q0A2Wtza2KG4?##
?@@IEocKAUhZB8N5U58MHufTe0cL/T/LcZ5+TUWPGOoseaISIDnN89s52CCjWOv/3jk/Ew7?##
?@@LboUpWIYbbblW2Ukm/D0kiGoC9wQEUYJmhrfhGatwjGOXY5nulpsFtApNOxhW3t0JB4a?##
?@@kh6cgyxY3GO7rhVHYVqWzCAyeVVs5VzLpnvYBJomBwEUKHUNehQbS2ssBqnEKoEHXiCX?##
?@@94IkYHZQUStHGAWh9aNQ1KfRPzkZH8xC6aw/wfeAaGuXizsuwo+jappJGAxbjywe2gyq?##
?@@JGxoisw528VhsbLL0V3lYSAFebWYqadq725ralZ86cu5+xC27iawAozZMq3FuIkAtb66?##
?@@CYRlOCRz4dsTeW7EwWeLnFpUUJtMI6r3Lk72OVxpddrsiOYzdLOtqlXIEkQAKWsPiJUW?##
?@@gpRr/WvHAJw/CrOTLnczzBbmSAkY9nk14wureFlYJKaJgVH+Iu1b4eXLuLHYD1mxGiUg?##
?@@i+IWGNK2EswL80t0gE1nsXNxMNQ7ghDGQjcwaVBC9vZyCllQTHJ8oSzAHHpHoDJ4a33i?##
?@@EMDqot0oSs+xvGdHNy8eBMB+imEhu9zd+DNl8sBTXRWVqG1k18hKVWjgNznMZ4/DGMKx?##
?@@vZDRWq2qjsPreBpFbzOhKgFyccsEa5Ml8QnnwJe2CTpfs7cRFmvByuhjDjdp3uFBRggR?##
?@@itkDwEUvEmD8KfS/edxX+sKMomTb+tDtt7Y9wKvzitlOJbxhNe/hE+8WuejdvA8+24k/?##
?@@zyspkUeEWIFxs68uQnfQfZJ71m7isilvNvoAZS4wr78/8e9j0J2naZKj9K/99RGHXwY4?##
?@@NPaZEI1SLDOSwKsms3bvQSDoYu5Q+3ewLafuAyiFDl650DigUkwpwDwrQ0Pg8YC11sIN?##
?@@5ejNKaTTHriCxV7jwHWxGcOXIfaKHhMvG6xiArfFW5zJfompzoX43uGTIdyxgh1E5Ftn?##
?@@bujtFcl9wMM8hzVmE+0DMkWoX14DMLfaopdZeWEqpT0d6yjWTmwpV30MWONP9kaHs09w?##
?@@D7jXSqyKWc8CIXOP+pDt+YmmjoI9UZhyNi+OZfbUIhqx3wfAd1hVUiUI38Tr7LCDJH3u?##
?@@YHDiQKWMHB1lVY2wCaBfLKP70zbVT8C/Gu81DsHh6HGRm+fLFPV6khoVhv375q8t/NFY?##
?@@sSnsNsy2/zWZ59jCMeQ7BBEgmlkg0lYe+2kliQuIgAJULcK7nJJ0kUGyevp9vcM7P5TQ?##
?@@rg+zLc6zPrnFN7OB15AphEDwu9r0k4MOpMugCgg1lARknrHJz4CE5eNdyGPh7Q/EvUMb?##
?@@h7/KtjTxL0Hv/m+FhOE5OQHdQfiqM48hOoIuELMcZT5HXfr6JwmgF2R6cJAoN7gmzKNd?##
?@@wKoKZNycNe//M10tYnQajBUFy0rIxhKT9lSjTWaEwpBJDO/SRNSDdWw7ag+V/suuGLa0?##
?@@nX1uT6tf/bNFXcvGv8UrsjtxAi26t1DCvhoi1NLtSE0seDtYR7wxeoAJUApiCSfXzTWF?##
?@@gpRr/ekT45SVm3DfJBvD0aIc6lOa2BNbcNJx2iNloqG+IzxvKZT5xzYa7f6D0RimiLxY?##
?@@w8NEbYsGhM77fZrXa22ujF/DFKMyb2ldZAwzEjQMAg4he9l8KN92VcdObCj6vb9tebGv?##
?@@oJanWNSjtsmNH3YazX0qygtSObHQn0yWpmSGgOSM5zGlR21dTpSYzkMadRPbO8xfXCmN?##
?@@Tc13sfHGO/QeqM1IJItI66vbZipdi+vzktZPowMfCxAmYbKl4cAebpde20mGZDefEk98?##
?@@fnIemw3C1fVnaU1b4PYWkkAKueAHpKU8laxGJ9cB35Z+b2KvugvTU6FQ2lu49EF9Aswp?##
?@@e1jlkpkuSsFHM8cv0q2PJ7sJBs1vLyLPQc+299sOL/lJ3NxhYf7EfScwQrxYzPNbD2Ck?##
?@@2HjVrNAu81HgEunM8q1YgdG4b4O97fbZ6VY51+Ghul7TUm9EFtFHCSIgLK+aZuojLuKB?##
?@@tUs4lxNN+9H38BGa9iFG0/893Bpfwe/lARnOxELWy6m4SWmqYiFjGqHmqkiEeeEx0K14?##
?@@unaYUfUn+OJ7JpE9RaLsOg1yFOp7ApioDlFfym/axjiEWyCO02fTamxrlMDYZkHjtvZ4?##
?@@5/nz2pHTZRye0Tj61T3N4aYQJ7cSmUXuHHZnFhGBTMeqo6gbukOcYA421TeWOHBQI1wg?##
?@@9GnrV0pS7e9LpA0dD4cF+JHIQ4qe47xuguLAP4Xjib0UzsaBgQp5+ACcEysZ1KKZlwda?##
?@@IVIvgWOiVUaawbWIrDeqhMWSt1pyGAzFr3nw9pL2uxpAXHhLpLEOeLzIaeThVTnc5awP?##
?@@PkxYgyYte72MESyJa+2fCnL6b9tNojx7cZUApDLXyukINcW1tt1opT7DT/UiTxQhZLGb?##
?@@/8e9I3v7+GPfBXb+eDvWCWVvKjLXy8hZJG+FB6AzO6CLZkZ0vTE1jbyeEj19TP6CiDzM?##
?@@dBxfJ/wChU8uAIIZ6G3s0Bvl8A1VAsSOnucrk7/zMtAVJn5AH/CS5GJYE+VpBbv+CtsO?##
?@@ab2NW3Yn5OSXnTWWDw9sNoaasg7BJZILbvOap7uY0doYkTRJx/o/NYchrEAv4JJOilWS?##
?@@/r+qyu1ytJtxBZJikP7aSm3fUSBFVjzLujMWNVW40u6bBnejWukv+xBRQxLNb9YG+aAh?##
?@@25IOtTkNkhCxTXyq+N5DQU6yqjA0M5wgxjjYa7RW4kp4eiXN2tJqHEznmRjSxURLigF6?##
?@@yO6jJsMhDzMWAsk+zVD11LSuKV3kqg6whhcPpxP3UqlKRswgjAe11P3O/5G/RKaSUP0q?##
?@@tUs4l+KwcSb5/oDLE0nSKCM65h76HmPibdveop7ld0D1vC96HRPKsu2z+cZTs8ko5wjN?##
?@@fnIemxjZIIxrEC7MQUNozbLtk450tGabES03bgXgr7qf3fwwGB93KvDByAFILmpwhlD9?##
?@@g51+VXzeQcVsoEMf9Ky6iJxeDXsDeW0UIz8gGcyqtJKcCXDV+zRvXPh+od+a+Cl6XvOT?##
?@@6AEGMtNYYmuJ9W35b+WC4AXWD9SMDGbGB+sCwSojIo178eDD0RA6SmlMZZquwmbt7QjR?##
?@@IVIvgdJUarMugbWgwQFv+vfJE6FnnamIcn7pckqj/nZiUFfc9ps64ulik5m9sU0rSGr8?##
?@@wrswFDaZYhp08oNf+IQbIf70HkJUC5enXSWWijbADYK99v5AxFnVR+aaQNRPXMWcFEvI?##
?@@I2RVMRvMO3U3cd0E7KGlx1MOJXDEh17gp+zasDL44J+BkuEOsahPMZlGDlFhYzYu2jiI?##
?@@UOawuoUekm/zKIiLMPpr1Do+zXSgw/ZyoDZeBZBA4cV6OjIYCH/PujL4dRfVhLY9F3Ay?##
?@@SaoqUCKK9KcMvJKsYpozD8gTzj/fcsyr/RIrWFF2dn3heBtu8A0esj2+P+ZB49uSLYpT?##
?@@xt19diGs6FXJ8++fVL2LJN5aj7yFnBedMV3oX5AzA2KS3PxlvqfdchwaP08VFU/dMRaM?##
?@@B3M+hzVgChkN5yCKZk5yO0rN0wzjKRKE7dAfw410c7QX44PHbnPofeBe2bnX7w9CUWay?##
?@@QF1/NNuoZPdOJUVkmVZX1KK7ypOKalfCf5bgzXvyaCHO6XX3+mdRVrPDjufqEtAZgBsS?##
?@@wbIdvOALHFpGoZgP6/s9vuDKbmzeUi6hMiXf8ppN4rVA4KPiW98HjRmvUlHRGSn5yr7r?##
?@@NgfAwfd7sMlrAK0WnLes9WlXkVGWWCtC2XVXjCeJv/gkKddsfLRxT9N3foFiNhOpOpPs?##
?@@zyspkbpBZFJKdzr6gMe1Hkiw52FLn6s46u6uDrTIZGpX09T7yX4X/DQ4vbeOgrchuomz?##
?@@EMDqokG71ybZOJ5WEHTplCZfYueQ5KWhft/m9hu6gnPqKhDbhkFu1H8W+Bscocpon81m?##
?@@PUNFK+E1l5o/1keHnThVXDTNaSeT2t4cl2cy2TSIKCaRd6A5mrvbQ7Qr9OiOFN4oCAQm?##
?@@unaYUR9BAdMjuuddJdjCTN3zMiXAWAq+trKWWJXqV7ADwmJ11MXxntdUJ34mITrR48pX?##
?@@P1Rs3Odv/KisPexT/YTagcF/qhxwT2k3gUnj97C16VDoM1j5dKCaJ8FObhI2lGbacsQh?##
?@@qNtAG1GqtRwpUb9wUm0JdbwpNpn/CNhoPb46d1VfNs5P0pWT2FOhWJogsto2ORzPtu0v?##
?@@KZfHRCn3FtlXvP21RbwONhSL517jhb0qs6M8wP4GVo81GjGQv0PCVENqUgSzmt9KQnLA?##
?@@di2G2EeQC3DtGWHkrCEaOZFjkHxXqHN54eZ6ri3NmdC3b4ty2RSH8LZz+yz/zj5n4xPv?##
?@@12/BVM6vT/90oj4n+LZbR3tVB4QtD/fjTBHcq4ilsh7W8EbCOKpmeIsKX6mSQfKg8xJY?##
?@@RH/LlnYowj/Kf7MZhoVHMjS+JSrTDbjrvDb/SoHmdWKzzqx0r0up8IYFwB/8Gl3uzV59?##
?@@FetKXCDvqk5w35fsYKoDmvEJMepeKoT3pEVkx6kA8othgP/tn2mmL4nOxMR7Hpux7fQs?##