* C:\Users\User\Desktop\Engineering project hardware\DC-DC_Converter_Tester_Hardware\Symulacje\MP9928\Symulacje_od_producenta\MP9928_Steadystate_20190919.sxsch
.AC DEC 25 1k 1Meg
.options PSP_NPT=10001
.POP  TRIG_GATE=X$U1.X$UBB_OSC.X$UBB0101.X$UBB9314.!DCOMP  TRIG_COND=0_TO_1  MAX_PERIOD=100u
+  CYCLES_BEFORE_LAUNCH=500
C2 29 30 680p IC=0
CBST 9 11 100n IC=0
X$CIN 14 0 ELEC_CAP_L13$1
X$COUTX 25 0 ELEC_CAP_L13$2
X$COUTY 18 0 ELEC_CAP_L13$3
CSS 28 0 10n IC=1.2
V$IPROBE11 16 17 0.0
.PRINT I(V$IPROBE11)
.GRAPH IPROBE11#P axisType="auto" persistence=1 graphName="OUT" curveLabel="I_LOUT"
+ analysis="tran|pop" xLog="auto" yLog="lin" colour=43520  nowarn=true' GUID="38b36c85-fecf-4373-9737-e66b37af205f"
+ disabled=false 
V$IPROBE13 18 25 0.0
.PRINT I(V$IPROBE13)
.GRAPH IPROBE13#P axisType="auto" persistence=1 graphName="OUT" curveLabel="ICOUT"
+ analysis="tran|pop" xLog="auto" yLog="lin"  nowarn=true' GUID="b02544cb-f66e-494d-b9e3-35e1ea41efe2"
+ disabled=false 
V$IPROBE2 7 14 0.0
.PRINT I(V$IPROBE2)
.GRAPH IPROBE2#P axisType="auto" persistence=1 graphName="input" curveLabel="I_CINX"
+ analysis="tran|pop" xLog="auto" yLog="lin"  nowarn=true' GUID="bd58717e-bbef-400e-ae29-ef9c9761e22a"
+ disabled=false 
V$IPROBE9 18 19 0.0
.PRINT I(V$IPROBE9)
.GRAPH IPROBE9#P axisType="auto" persistence=1 graphName="OUT" curveLabel="ILOAD"
+ analysis="tran|pop" xLog="auto" yLog="lin"  nowarn=true' GUID="d4270769-1a08-4b75-8765-c57e952eeba7"
+ disabled=false 
X$LOUT 11 16 LOUT$TP_LOSSYL$4
.PRINT V(29)
.GRAPH :29 axisType="auto" persistence=-1 graphName="IC" curveLabel="COMP" analysis="tran|pop"
+ xLog="auto" yLog="auto"  nowarn=true' GUID="9675a028-f28c-4a90-9b6c-334bcbba8944"
+ disabled=false PROBEREF=Probe1  
.PRINT V(27)
.GRAPH :27 axisType="auto" persistence=1 graphName="IC" curveLabel="VFB" analysis="tran|pop"
+ xLog="auto" yLog="auto"  nowarn=true' GUID="a4b3fac4-2cf3-44fc-9f3b-b92ce4a202db"
+ disabled=false PROBEREF=Probe11  
.PRINT V(11)
.GRAPH :11 axisType="auto" persistence=1 graphName="IC" curveLabel="VSW" analysis="tran|pop"
+ xLog="auto" yLog="auto" colour=16711680  nowarn=true' GUID="c188c1a5-c22b-4d51-b03b-e0cc6ba2f889"
+ disabled=false PROBEREF=Probe12  
.PRINT V(8)
.GRAPH :8 axisType="auto" persistence=1 graphName="IC" curveLabel="VBST" analysis="tran|pop"
+ xLog="auto" yLog="auto"  nowarn=true' GUID="d6a83ec2-77a0-4684-9b34-6ccf09c55a7a"
+ disabled=false PROBEREF=Probe13  
.PRINT V(18)
.GRAPH :18 axisType="grid" persistence=1 graphName="OUT" curveLabel="VOUT" analysis="tran|pop"
+ xLog="auto" yLog="auto" colour=16777045  nowarn=true' GUID="d5623c65-7b94-4e32-8b8e-7aa868221ecc"
+ disabled=false PROBEREF=Probe14  
.PRINT V(28)
.GRAPH :28 axisType="auto" persistence=1 graphName="IC" curveLabel="VSS" analysis="tran|pop"
+ xLog="auto" yLog="auto"  nowarn=true' GUID="1addb368-17a6-4e86-a988-1e5597cb0de9"
+ disabled=false PROBEREF=Probe2  
.PRINT V(26)
.GRAPH :26 axisType="auto" persistence=1 graphName="IC" curveLabel="PG" analysis="tran|pop"
+ xLog="auto" yLog="auto"  nowarn=true' GUID="7c43e977-24c4-41a0-8bfd-ffc826bd9879"
+ disabled=false PROBEREF=Probe3  
.PRINT V(24)
.GRAPH :24 axisType="auto" persistence=1 graphName="IC" curveLabel="VCC" analysis="tran|pop"
+ xLog="auto" yLog="auto"  nowarn=true' GUID="c356333c-ac95-40f1-b062-16aa4fb8c93a"
+ disabled=false PROBEREF=Probe4  
.PRINT V(7)
.GRAPH :7 axisType="grid" persistence=1 graphName="input" curveLabel="VIN" analysis="tran|pop"
+ xLog="auto" yLog="auto" colour=16711935  nowarn=true' GUID="ba60afa1-77eb-4477-8f81-8f9bf7c34c39"
+ disabled=false PROBEREF=Probe5  
.PRINT V(18)
.PRINT V(23)
.GRAPH "db(:18/:23)" Curvelabel="Gain" nowarn=true yunit="dB" complete=True analysis="ac"
+ axisname=bodemag ylog=lin  persistence=0
.GRAPH "ph(:18/:23)" Curvelabel="Phase" nowarn=true yunit="degrees" complete=True
+ analysis="ac"  axisname=bodephase ylog=lin  persistence=0
X$Q1 7 12 11 PWR_NMOS_SPICE_V2$5
X$Q2 11 21 0 PWR_NMOS_SPICE_V2$6
R1 18 17 20m
R2 9 8 0
R4 15 0 40k
REN 10 7 100k
RFB 0 27 12k
RFB1 0 30 51k
RFREQ 13 0 39k
RFT 23 27 63.4k
RLOAD 19 0 2
RPG 24 26 100k
X$U1 7 8 11 27 28 10 0 29 15 24 26 0 12 21 13 20 17 18 MP9928
V1 22 0 24
VAC 23 18 AC 1 0
R$VINESR 7 22 1m
?@@--START ENCRYPTION: "MP9928"
?@@e1jMj4vLgG9o72S4pCupYcDOy3WC2lr8Ydy/cwxCl6iFAxYiUu+yHc3Q/kgUjfwZZoB3?##
?@@dBxGI2AoC7FH11IessZg5GPLmaXKwV/b8a6s591kbV9kxDpHhwmlTWYasug9Tyuqvcj5?##
?@@fWnsQfxHGlA8VreywGKAQ/TTEMpnQo51Qaoyd4c4fr0h8eeFaJ//fXwpyhqb6BLvcv7A?##
?@@kh6cg1DVKihj7tz1urwOzMRF3GMHxpBc613i4NuAMvCGLI+bD6xIZ7Rz9obcL+GVVB0W?##
?@@A1DyJt8GX2rPCY9dGmTa1THYWU5gPsnCkgIbtwTfLcXTH4KaQLuS2njooeJqLfEIA8dR?##
?@@fGH46un4b10Pgtq0ky/Psx+STe1hh4meJYzyZTIw9sl0SYcyvTcz3Sa0U+WJQlspeP1n?##
?@@LboUpWVQfKwhs/uISIkDmf5eb0kzyb9J1ycVeLoJJnuXxvoEbFKUJjzRi644GI47x9is?##
?@@mmM1RZFAcrbtnGzp3ZJ+33Js0PaxYl5gZ9R2dMpztjlv3GYmeJqL0dRklz/lmaXMMeYp?##
?@@o7DhYcgQOhWfClrg20m8Sy/KHArKQO55Lqk3bEPPEpSmeE/wR9mscImQ/VmoDRmABxPc?##
?@@dBxfJ8heP2xdwYyWw4yz5guMxdq3yF3R4p+DKgRUMLhO5U1OgXWWOA0iXQ//IsSW4fJW?##
?@@mVoi7YsWQtbToOwdDwqpb/5BrmhufovWcm3lnWkuFdL+7SuHxb8qjxhtWf9MggYEK01I?##
?@@GhapFpxCRCLsFumyAq3IoAM4FR1fyUVNCGb2MRhU4c1GmfJFCBwprCJSY8h4gbRWewpS?##
?@@x+aQzhPV02HLSQmGfXfQjzNAC0eLsIfKFvh2mr4AbVz/Zh7jjxhYoJT8FZxmyW43uacY?##
?@@8Eaf9fB5kYlfh2EME94U0ucjs/ce2Z6CHMaqehklylj8WV/MzjIYcYJWdUrDUqqoIQdH?##
?@@QWaSjTpjftgisAIpYZpU++15eaHeIywb1Gkh9xMNx/NE5K7tIw2bZILX8Ok6kNTkr4KI?##
?@@sjH/jrHxzp3IyJZtUl+jx31znpw/F7KHcgd+TIQn6d4t/aItXj632Xwf5iE8Baiue+Ja?##
?@@m2tIniOZZi1Qk1Z1oUrPDmzpsbOG2W3QCkNNJFvO3jupnxfDyAsjpi17n5xj+DKHqCe9?##
?@@CHtR4DKUsA3SeI0DCGVN4D0/XQ3JbEioQZHSJ+/kUsLeY7gC0b6aHnK80kacJRws3/Ks?##
?@@+ZRLEbRqcyWR7jI284cJfSVRSvcw+AJ6TWuwZWv1QQOO4vlmobfXG8B7C8vD4xrRdhLR?##
?@@Jn2OO4vEOnkPUGflo4uyNR5RLPNy6GBjtdYmmskYvHksnghGhmgoNsFDSxzGzNn1xVb5?##
?@@a8+0DHl7aTH16PvovyIMsnm0QNkRRtyx2CYSxiA27I3jclb1OuFy6fs+znFO3Appex4Z?##
?@@xMxXxZVyF9wHg7QkU8UqjpQ2qssMgBDHxDkx49oBZD5Z5FU/OjbCCnv8SCZzrd75RW93?##
?@@VREQdKJnedRm/ekqGTp+8Jr1Iy+8v9FqmSXNe4DUI5gbtUly49pnIUj1D0ZHpwRHuK0G?##
?@@WjxvLmILcpE3lvLo4xXnAbu3/BuPZBmFdv0jTN+u2ZCLc/wnQd6/xAretW+2RO2uL3jB?##
?@@12/BVHI/t6AiijkO9pO/97uEPuCViAi8ISjZJM4QS/P8M6TQ2dsy55VZPXfsUkz6M8e8?##
?@@tEIlPzXb4THsNsxPPJEjnNQBHcipmomXRqGeOBXfj0noQBvN1yDhWEPME1TPlid3+Bsh?##
?@@Nf6taIkzz8nixCbzJD8ME6H0UN1lOxo+84EMEF2n276EHyyCQmluZEUZR90Jmng7HO2M?##
?@@vpjksy+PRyP+LPVNGRHqaABuxFVSA1tmkjOojZfhjA2vl7R/enECMQ25ay84d3+FWZaM?##
?@@o7DhYZoyBpMOOnVFgm7vW43iWQUSBDX64kH3dnUQICaepPwT6541sJko6OM1PSExMgUH?##
?@@JGxoigwZVMli4kFa+zZhwPDQpu3+VNbwxz7DN9N4SipDCq0liQDwcyASDRApqI+9YTl+?##
?@@2YHoBRC9IPfzBoLmywZJ2vxmfmXWTu4bSbSHAB1eqDKgrzDJNo1IQCk8rJL12lQ20ePT?##
?@@SrM+qCU5DsQW1f2OijD96NBiVCERTbveZufeOdpvkPUy3gv0OrxSBW/cxc6w9sa6Tfcy?##
?@@6xs/Ozi3lowUSWf0IHEgJ7OlDdZtTERxhei1sdvaGYNrjaPZf6ePeohRFWq8FAia+Fel?##
?@@UOawuposrHEX69njQ+tQAPP7BXnmvDU5/GaT0x10qhmPxo/dMic32JqJUd66yxJjsyFL?##
?@@0TxPQlIPgRxSkJXpqIICd3PmupO31x8obi/66iqNXLae5XHiOzUehcOTw99V4nDaTKej?##
?@@elDSOicuDwAJdlk0exBX2riGdhxn9Zksp9vXeL1gQVJvVDsQHDugQ8rnB/SpaF/x3mTO?##
?@@S7tRAFflcqHWvP+bsqKckqr+Dsa9+moWYayln/vH/8dEJtW+V3MNehIF8rNMiq2GCnTI?##
?@@/K2EGopW5xHWTRZbB8jAwRgc/vGOIJudOHn9D9qYcazlfXKf44awh3gIFqjcbLCPCLR3?##
?@@ab2NW0/9+Fzuq2VFdiSfzztiLALk/vuXYNq2ZCSu02egpTfOoGO0VcSw9oCNyE4kJRvN?##
?@@jvxQIfNeGN2p3B6HoeIFfP1whTV5y6yusSQ/Bxzd7LdAerjS7Enc2RMVkhF+ezbsyRTV?##
?@@82DY/hVvFYtG5vyihiu05UX+Y0VJDu4q/Y00EzGFbTwRWEfOXPM1YxR8Q1HyzWAHLTup?##
?@@DJ6eQbXMZ6H7R45jMAbBIi1AAXcNVdYHTZXVCllr9kO50C1nxZo/dFgVyiz32JDz9ICd?##
?@@pcEHEvu/fKlnnB2fhuaGergtEJiTsR5k6CKQLw4ThrMADObcr5RdW9FTMx58bmcU9DU2?##
?@@3qtHv2SGsy9nX5KrMX4dpv6qtCxbw+oeakOUftLRVNy/gm+OvuRAhwXriN7Rdod3F/ao?##
?@@X2fO6JrwuMqyq8QNLVaf1KpkmhVLw9FG+3yv5aM0oshTFy1Jt54gaACBONCPmnpA1LSi?##
?@@8Eaf9VWi70vEz1iukt8CdHL8pXInO/S9iw3ASZsQZNlB/MLrS0PP/oulN0rJpYxbFcKA?##
?@@gYxYpHgfSMDryGVvU4Ua+wDghqa5ftyvbqxqaHaE8MawPiadpJe8sHA34N5wH5EixR9d?##
?@@7jV5RJWZRZpxKjFowuoiQJmu5m0REM+tWB32XTs8baR848y6FLs2WkREQmdlScYOZ5zY?##
?@@l0n8PEc7RWXZ05HuldR+yjky+rl2QRJ/DjdUHdz8dUIgxnTakOALLPlqofjZeK2NQ1Vz?##
?@@oJanWNwijDDeXgDjb+sI1xSAdt/UywlMa6LJKHKgBSdtnyY5T3tHbtrTNh6HAfr4RnNr?##
?@@4cWAyGgqQCIGsmBBGKTntJhjEWPpksXz41Dtzzby5Yf+0ldmDj2Tco+/ODw9KOgARwtW?##
?@@wrswFIwVUEKqy6SjdSjaAJmSLA4br61KH6sFMe1OwHljQiZehiBFOsbHZVymoTCSGh/t?##
?@@x+aQziy6kMfa7GmuDdM2YgRnfeyXD+xpTIpUQndhD7T7xk1S4mYfQEbmpwAJRORufAJI?##
?@@mFIPlXiDK/+NuZJdEFffQh2bXgNMqGs48sonXJrbvQVrNucX/u9cbkgkcsydqjRJs7jd?##
?@@mVoi7W0rmPfXMbwhl+isxmuCij6uocqOsvFc02wGzLb4/eWELpgrZ/L4i/tPP2Qj5wWO?##
?@@unaYUZv1IFlmzWWofTe4ef+6slS42QKrXBNpzbWtcgHITJ4oRXM8psKQj5pMls5JOOMr?##
?@@n46U/0eyK5otazf48fJUPWs+FmFbV1eorUd51OVQm2ka4RS+z0mXvpSwhaV3+67J8Q34?##
?@@fGH46muA8I0q/RYCb9EiAWRIMt52ugISFt9jtGzmtA5DEwLFm9O9+LMtlHi2usUhbRJa?##
?@@oZ+6sD/0wYvHaCoWqVoumRUvtz5k3aguQRF+fXtU/YvUBmejcOzDU2JXnHuItoqPOYZG?##
?@@unaYUQK2nJ/nS7xEjczDimZJhqUsm3d/oinOxUwZ/MWxaZ8HdWIgOmVoU4frCCnr02Up?##
?@@94IkYEFem3L48rbwz9Xg0TJCkdW9xWuQ+uSwvyUSEMZNdwppL1y/dxFFYBp/X6fAj7Gg?##
?@@3JohDt4sK6+ddfITQMLCiiOk5+zPD8UbWKkIcNSubrSpvf3am5MG+7+L9GSWGH+yJvbk?##
?@@Ecn9+yMGc76SOQEkmfmAsWYNmv6r4O2s1DFtf4AQPqLw8AZDexwHmcteH72Yj7J2hF18?##
?@@MuVzX2vyaInSCcwwGIGrg7Kld5A8yVHJ1qXHfBeaIBgnc4isAwcbhiUgiUUDFdCXjy3+?##
?@@W0WChiarqNX6ROaESjAPaq4GAPV2TSUsJQadh0pV3AglYfmgMsOH74OtNllMz+FKtcyf?##
?@@BFkFfgwbz0kPhtTMWtcMzE0eTyJYHzgXMtFnPswm3jd7QG/UhxG2Rt7m+5Qya5BAYFmX?##
?@@jfM9yQSjpIQJbB9ezOpiJSuBNRX50Y2kBwKRFaUhdtf13tXuEpcEmrhupH5kSqhA3jQF?##
?@@GhapFgphgxJm/y/a+W7ile/JmSI70I9j/OVVBMoxmqjYDhUTLGdqhw5/evl10HqBw2uZ?##
?@@g51+VVTvUIZqD3htgOIxetqrbtDRvFKqdAKqs5NOsCoR58zF6kSOyr9mVnB87G4oCKxx?##
?@@lC/CM7FYKqTl0p31NAkdNGllGFw7prLkAlVDZlNltMYkJk6SMj8TKNaZgyb9mE3PCfMt?##
?@@CYRlOCw/glAMRl/ldU1qs+ea1M0+Sn0v0iif1nR/f2bxo4uhEyn5ExrzJl87p1hutPnJ?##
?@@7jV5RB1Z2qNchvC7Fh5naSL/1JOBmKAoazLvrs6a5/IVm8r/9DkY/+h6Ovsauiqkr4yc?##
?@@p9MtwoAx92dKGTJH3QB1a+IyjiJ2uOXx4blmFYXfN/8+XXw/fOoNFJgxa30OPNOkajuj?##
?@@iMjdD3t9w/Sh1LcLw421RbttS3+Bu99tbiVSTf2gPXAOdsGjsupnQopfEnPaWyKEVMYs?##
?@@0TxPQl7V2b83sSkn5NF8kbQMm+ZJbywGSSWzV8tNBSFmQ/YQMdh+N2EGh6NbDVmBySMh?##
?@@tlRL8NWR05PGGVwEvd3b0kw67J2+GwQKKiVQeyhlaiZENQa83II0yGj2OgAW6hwiz8RA?##
?@@I2RVMa5x7npEJfhE5ODMSxCyymor5TuMl4GIXQNhlHtbjDojZdJHHtBiw1hN76P3mkiU?##
?@@jOoqcAmXCa3nEq91V2Ig6ji/2qJPX8BoRks6DlxqFQ07hvOGe5mIFWxxYTJFCm3mQFIB?##
?@@vZDRWgRx7qua/gACKD8AskjvddhvuK+aBLW3RD2ojhcIZURY1Mwn48W36UbXCdtpA6w/?##
?@@OikMIhp2REmz9jWh8MRsYMzY/gPmPMWYO/KWaO/jdArUdPNpHiBDQwQCce1Be6FAAsnd?##
?@@R5kEnxSVcZLWp130htt62Tt3CFOpwx6oMOQ/FRWe/wodwWOJd7V/+WxE4cd9wYsepdTu?##
?@@SKIX9+4uyjR5qlNi8EQNG54hYrMCIrzwTMjhskrU6otRZtEgmP/pGjmKm2IEqPK8tkT/?##
?@@9XH+r/xXkzZdTCwDmpFZrjxQxkBpxFAvcVvc1fCN/ubXWtPfb0q1mHrN9/edmMZZA56S?##
?@@KqDbnJ6VH/NLAA3Le/ub18Opbu8HME9XKpzNHHgaV8kRj9Upg990XpZDtXyAvDXfuXA6?##
?@@f3sx88GuFND3LXWXCJW+KosokBqPyQ4Fsw2+Xg0Dc9CAS528fayncuyujNIEfKO6BXsz?##
?@@4L1tb0QmzcgkBCRpZF+JDcjnJZ5V9ZEwPxW/UhvsXTX5OdQROKR6FYaJV6o95nrDATXa?##
?@@XVaoN7er6bW+33fRYzRMOa01GUYlD5ETTqvl1HB1zCFIJNBoPqeEPm4ZuRK203lxXJ+2?##
?@@Jn2OO5s+PyvaFOtrtbnEGOxhIqitOOvKEPUlNa3OKVqX/qi5k6IOFarVavJgBvq1NsQv?##
?@@W0WChkejpPfiJzIUA0jJGrNbMMlI1uoQbSFWlObksWPCnGced7nJXbHmMMs/yldHfoRL?##
?@@pLn0uYwDguC+qmTSRTowmuzM0/4uJow+gmENztb23Jq1WtpzZaFazPNXwB4SvHF54/bQ?##
?@@AT/MdT7Qapg7UOki0DXQfx6NXDSZLV/sALY/XbDhMfOt1eMKOLh9xO1lgwljauOg5/vg?##
?@@jvxQIUTwQfXjVOy+7zlcK5LVQNJNSD57nPLNl817L5O7sPAbnhjKxbDMwgBUk4HaWjIL?##
?@@w8NEbfcoH8LxrIMpHnQzfdTfiFSmnym//dMDdVfT5UJkWy4p1dCTm4RJzqrqsi2/EXko?##
?@@nHRb9gf1LhYopiS7Vf4nPPCb7kZ8ANy/1CZTwLNhSEB5dKHsvc9sriNawGy5X2TFj4nt?##
?@@oZ+6sCmfl3FDaKf7XlINhbym7M0vqN6WKCt8RXRWvBfpwYcldpCImcZuSy3Dp3eHLO1x?##
?@@RpDxRiVT0imX+8dxDhRF7wD07+RrLv+ToJloF0wDptILFhvZc8z3l+/raibUT9NlR9kr?##
?@@VyM2JX04vt1KxsHieW7D+zghaKajDV1f4LXfxpYC81CEQaja4vK89OO72p2n35fK/Y1W?##
?@@WCtJfVLNgULW1hcSoXPpsFiAesi51v2IOCOgjpYty6Uy3yUACUoOtf6oWSGWHumbqeBS?##
?@@jfM9yQJvylRMlQ0Odj5Hz+t/0g3IaNb8Jzro8BtEy6MPIhFcHS0h5N+zZkYD9g0CN84f?##
?@@vpjkszXC6NBo0TbgjaVhBTKW0lpgWMQEqT4u6xS59Uvg9MfVyUziK1sB3MjQJcCceBNc?##
?@@25IOtVWWidNaA66z7yt8SR00FhITaIcSIK8g63VMKzOhdXoAIdmPj2iCk1gZDc4vhFGZ?##
?@@JGxoig1A+IbG615ELhiY2g+DC0HyT/yZcP1ywfGBKu+xtKHGQ67vRqSBUEB6acQJ/NKv?##
?@@lTjVjBnPSIhW3XSTNVrP+mYrVdR8uwf8Umbqq2Eu8A4vHa0sYskRNKPTpSf867iZsQbl?##
?@@UvjWazNMWnHWNxw0E0lQJxGVhYEPuj29j3lICIRXC4bl9pBCOb9VfBY8CbVBzBktYiTU?##
?@@M+2Gt/HFnchoMIyOrgjs/3BfTOQi1ByEqIhHzNoT6jdmwYtZoOf4+9oyi7FcWBSSjSb7?##
?@@oJanWADHkL4YbY1Q71dD9vJj+vm11EnV6VpJDsmEGSvvhOzNLCJFD9ankZ22cBJ7HBkb?##
?@@gYxYpHTEsvj4bKZElVupTowhoQGrygQyxxRsFCOqeRokLDTzcu8WBPBfcIZvMoljz3ZN?##
?@@tlRL8Dm9NM8yAAvSUmc57Pzb3XqwzroK90Jge8R2kiQqXsNtL/0jZYvm4QQbRu5vUSgr?##
?@@a8+0DFJfnlD3im/ANtRCiy06iGzy4RdCUvYGP1FPGJhk1SOZWa5Y7uj53hoQuScVJcEU?##
?@@LLEBTZbzyyfus+vQ33va41DSI2k+cIQ3RMkZVsf1HcYDpEV/QodODaerLfgAQIulCBz3?##
?@@AT/MdQL5sQPOF3/aTR39DgXxKQ4pzNUJHtyeB6UsfwWFoAKcvRMj1a+7LnvASvm+t7Mq?##
?@@VhojzM0IM7ygGf8dTHNaylPOLghdUGlKzAVNADYv4Q/dIdA6BpEQx8+RFtRuhpnJ0zll?##
?@@37RaF1pDfFvR4+rq8Ow2HcD3x6rAty3LK9hhntaHwCTbxjgHdR/hbw3giwiaO6U6niRG?##
?@@EMDqojvzy9T3yuc+ZqpFuHPzLn13rJIip1N5jv07xdWXkCzytOYeqL4qIccH+C49j+ja?##
?@@7Sxl7FwPUGkl+K2seXIgT7mLeJXD4V20XbCEUeXJFhmNI50HohR7vpKYcOZgMF/w9Pnu?##
?@@Xl+7j6262eLSN7OuXCluzRC2W/64NkoRjx23I6Ty8tQ2rT+5b0pVlZBAo3Hzx7F9Gu60?##
?@@C5WL6TGzBzksTkxjvEi4NyfWk3CVyBZ5hcMm87USRWaRAa3T5Cbv72Nmmu7DJR9fQh/W?##
?@@9GnrV1EqSLvpb9hEXAq+qb1TdLHFmU4wrHABq9P1f2AOFjX5wKcNyQaoHXRlyALHGQcU?##
?@@0TxPQgiRJvl3LTQqKqGn8Apq26eWXavJxX1QS8kaiNkYh7y4+M0yO4DsTQmUaeLVBctK?##
?@@fnIem8QuIewcDRFO4YuH7ZcGmzU+lgGXU1ljZstCFUP1k6dVMQ1w3ioc5WI3/ngbckSs?##
?@@kyev24ukor+YPx2GWyFxiVqGvNhyLUqSH+6zXyt5Wyoc2gAzuvblpGDwuXDV/zB2yViX?##
?@@/K2EGv2qk/CEcvnuK2y2WQCjSU+U68I4d8gBxolKf0fpuWhffB8XPeU9JeQveyW/nv4Y?##
?@@yfe2f0/abYyNfksiNshyoBAlCsVfFIFr+V1rmxCVPtg3KuT3UfrCSHtGPg3XEUN3A9QJ?##
?@@KqDbnO2ZEJsPcugEhIxkYwGtXSHlYBUW2wPCaxPC3LuuAR9FZyyZSxHHDQb/nsvctGtP?##
?@@o7DhYWv9/nI2/l3N6lP7/l+iPv3vNoibtQ/OPwCG9wISDRA57FnbcaxiO0BRkuVQTipt?##
?@@FOM3BKFNJs4x26GpFL+VPSM4y3HFetZxQYT6XI/NaNmwvh+e7nXMyZBE2tDB6s2M4obz?##
?@@qeRTczp7v3/yxLrb3NcKZiuc4ERJWUd5hTD5SslcPMSEOMDGQSIrHRPGmLAhyCCexJb9?##
?@@UvjWa3M692u8lNC+73+NjnJZz0QNL3De0GNYhcX3ERS5N77s0RhtXSNJjlFH5FanUJXP?##
?@@6xs/O4BrOv5/d3UBmNdyV09zwMflp2rphTEuhg8PQHb7cOWoyXB9LtbStyurqslk73/p?##
?@@cPoTxu/g09nUaTTqgxbXH6YY4jmDLVRF3Q3+P4ICNhfR1d40ouqD6HZpF4GH1N2KElY3?##
?@@ab2NW3IJuddUflOlUt70dDW3DtEp3FCXOt4YEtkIke/xnTE71Qu0EATncQrG+JMnbKrI?##
?@@rg+zLXND9rcUWhDcNynQ5pDIfOSoCxUtIaX4tADiEyL9mSq+Fe8zx2FQocpAhtfqlapM?##
?@@p9Mtwl8mA1Z8VEPuwo61joAPsb9I6CMb7rtSooIwEpyRC/pZofsIuo+QDaOSOGIJuIZ3?##
?@@2HjVrOGhZS8oXUILVgo26kX8PTf3cE9OthAzTQkLMkqJBj09oZBubOfBdqR1q8Qp81Ru?##
?@@ha6kBrIc1JiosbiEGKxL9WLsFN+n6WGFo6El6+wO84bzE9Y5LlnkejtpXIMCClZeJQsY?##
?@@di2G2E3AAbCXaMmhy1fDybqcVP+N6vbIFefuBID6479CVlp2ab7+bW8aCAEgaX9TEUcG?##
?@@m2tInjMP8neNESMFj4QHmAc29Ja2WeivCtIP6J8m7I9bm7yVOFBaI5d5I07S3coqWMP5?##
?@@mFIPlSqNlm4/kpenpovzekD02Krv+OlXbkIvFAT713sEjTTXsHswMr10ZhMSlZpJ4ICj?##
?@@PUNFKwWXyOUXJDRAeQu6KxsI84eA6wKGQAcsrwS1+nOygEIm02lAxOZnk4QRKWbHcaTr?##
?@@PkxYg422qTVABUVdvOFDOrGFT2LiE2tpyDY81mZGn73VnSmveTT+2aVJvNTTmo6/Jc1d?##
?@@q/V5JDT4pveaxCDoa1pUeqBAvPnGofdtCH6iIS8V659CQfvO6LQ7+SRARn7bt4/K3cl2?##
?@@7CRSlIhfXQbp1UPZZPNiYF0D/EpnzerVG3pza+6Breo+pe8EBwORr8RnP7bjwY9vn2Mi?##
?@@6QoZixXgWjuu6TtIRXBG8cFzRGfSKVlTgNC3fAtFGHp46ID5iQQoU9mCYQxPRdr4xS3/?##
?@@gpRr/VtQaxuX5wUwEFWO1nKcFXM2jcamTEArjrrtCAUiPftqZdEXjqUD0LDARQTBQk3S?##
?@@49aneLyGU0KWAb6KxbnCH9rdaW2q3KlzQeFKGJBUHdAFSby1iOZLOstrP2QGk3ZVLOqH?##
?@@/K2EGo/npNILOJ9aQX8OuhwhdofhgzW2HFT3CvPF5WJxK1+jd9r0fVSwSg/pjA9473x8?##
?@@DaaxmUFWJn2o8Y7fRMq0sZyaGXVXTp1lp7JhtT4OEtD33VVABRLZg1Lj1236c9p+4/iN?##
?@@SrM+qNqAPsCJptAQnzMnlaKrX+qZkIshCsYDE8wSP0JKMogWhuXzwdmG3LVPFQp2lexD?##
?@@A1DyJvWbKdFqB1iFXBL/2CmhSBsIlK3tUqoSH/km4shevCYzrDqvZOS+ZCDYfgQqJqGZ?##
?@@SKIX955qhsHRNU+U6tXUk4R1h4lHp8UTeJiOcrZIuZTMImrb50I+pLQAw8R7c3Bbr9p7?##
?@@SaoqUDu6vC0XALdSZrDYfA8R84GhZUpTRl9+gD1/2rd8s7WGbnXZCJi5IQmj9OyUyVPw?##
?@@wrswFCctBHU1Qkq7Zl+bFKby0Zkxi7FBGEhU7oyOytbZrr8ft0UbGiHr3WBoGnX0mXtk?##
?@@v6H3CzZUFyepT8NhmYHUhK2PBMWxGLCTupOBAb5z+BIf8Y5kp5oyMiZZpPeJpmq3H99x?##
?@@pLn0uXUaWykGtQCwMKPzfMkzo0rqxdmWgrf+JaY6YzBWQf2vA2lTu/mFxzNUx9ofHSfM?##
?@@YXn1mDQKdRz62IEmAR+koUK8Lo3sOw6YU6E7t/+jBTTmogOROWlsPXm8OleBCaN4RuFe?##
?@@mmM1RZUCrY8ZD0hLsb5drNib3l7B1T0+24F7BRy62ZVMfCiJGyy1n2hSAasKOPFVPPyO?##
?@@g51+VWOu9BH8P5onNxM6yKr2Qq/qi0DGemrYZnq4CCOe5jT3/Rr1PV5lWgltDbn0Zc0Q?##
?@@pLn0uZ0N0LIRYewkNfHG3cx0slCgqwQI7IiOaJtEJyARjzuho/VP9VEKyE5wt+qsxXHj?##
?@@OSH5ylwTyKNhRU5b1BzcI+0Za/3/G7mdG3GJmN+MTKC78gInf69dQxed/LFeUaHaNHH6?##
?@@quxmy0teFzaP+cuw+bKxEpSFzwJKPorxsOkxbq/R9DLek2mr70jzDvr5QdJgdcOFIrnF?##
?@@F/xwDWrUEb8Mehm7lfZ8dn0IZyxd3glgo8s6vFN1dBd472CNd8L1/LCjfoiWbHLdKGnp?##
?@@KI+064AlfXXfJsKTHsWaur//q4kFcagw8hwNd2s/NgRHy4kosejwmPWPyFLrkwIiQ+2Q?##
?@@QWaSjc7uRPdl2dl7g51QiHeqokEBe6NQiOb67cyGmC7yJkitribsH0u4U6wI60etustD?##
?@@tlRL8CgAR41fJHtZZMcJ0fI3KV38vMe6ubWOUgeAbcPFTfCoTfAWRNNK6Z9p5f7RsX/4?##
?@@K6ju9KZiFH8FV0hTmAXkoXy62sDPWw6h/+a154EgcToxZ6tdiE9oEdyMBXy13AbqEXvJ?##
?@@cPoTxl0/VX118tKZ21BhtxdPkbrizau47TlKAgpbm0QvKlWajmcFJXOFLM5zkkFDzDDA?##
?@@cQImHsnGBczE/vEvsys2M+lyCjY6fQxSUX5o8NcRUYI1mNv1NNKM7ddhVleMLv90gFxd?##
?@@BmorL2LKo4EzRF/ZbMz89nZthW1AGDNcdXUK19F5e+POSdPuANxVyJJG7i2j2362MLTf?##
?@@+6VxweuqwgmobpJUys3cd++6yM2yRajePlukajpejNxE/GWfkq2lT/bGOuLjip55uiqC?##
?@@DJ6eQe9gJPJjps7EkA/qkSJhyniafsr3uEDEAvOa1D9i7hUQLf+YTcy3ysAMkVeiav/c?##
?@@RYje7kSkHeC4CnQJ9WcTRzg7U3tiB1JIXCN9C+i7Mz+gBHjRaoYrOTRV9jVvjg8b+QOJ?##
?@@Co14kOkTdrLwQxSrwCzjfn4yZAC8MB+S4SUeXMR2fTXjtkWupgRAOxXc1j+d6u1httna?##
?@@S7tRAJ6NOqOE4qHxBozV1fXxywiFhRk9TIcE5u484GjgChD2wNaI5/lhAmYKrAnI1X2Y?##
?@@rP6MfAxe5K17BonvdtrycKvk0T9BQq4KRE7OLyQk97tSdVjidDZxQPyeicXV6ZfvdRUg?##
?@@YXn1mOVkvp/mF7dh/1mvzKTH+D/zv9LbLujrpxwbKRFRJ098KLKiyd+EPNGlQ6zTVjLS?##
?@@VhojzIWLODqgQjh8CQSVTtdMdqRRyzeGmC8bHEIpun8bU8KqCjRg9GExQ5ektnJsR0F9?##
?@@/8e9I0g6WFMCVMUy/KhUq+PrjQP4okMptCqEouH0DC6ff3VL48vrM/imIOhNzzatC5wi?##
?@@KI+0605TPiDDVTFFXHJenXkSnTCLwkj/wSTEgY6mVlNaFKN9+bHbct4AaLpwiGpzHkHn?##
?@@VREQdLdRemj/b7ViRaxfTgM2rTrbhOCJGD7r3k3ZBPg4W1jok1Y386VnAKLqereit3e/?##
?@@ZqRUUlpshDaRSf55cXF3x5MVRpe+SO3BCLg/E2g9p9/pKlvunoC/b+Ax3eRw/0gZMibM?##
?@@h7/KtjVBMX4DpP3+iSTvpw3zeHAC93OdC7xHr8ooMrch2ckQUqF/I5vj6sohxj+dEs9e?##
?@@qNtAG/yDD7EhGnMrhx3wFBlrv0WPv/yMGJRLhU6la4iNCUqJPSntr/o5KW4j/das/0SE?##
?@@CYRlOAmEQfNt4NtMCDZ46XvhcT9EYhcCWAbuexia0P1kdxKYDZyOo5cYL/7rpSEg5sp1?##
?@@Qm6l5TadYFDfeVmLfkaCNIy/joCPjsCCCYZ8UtWeHYpIcUKMVe8UzOgzdSxS5b6jJZPf?##
?@@P1Rs3Gz4PdhhrwgICy6svLYz8UM2LwmCRDXf0kBpoHWefj2OFlug0d7gDW6/+lqqhLr2?##
?@@rP6MfOsvMdgKxHj58eJsCqmoyi8KysS/4yBVegbdPvvtfdVQ/WHR/K1wY+wYSsqdH58n?##
?@@gYxYpHkq5rilHJJjZ5zRDC+Jh/5f0pgAESRTCdM9qvMOt9/U0Usr36b0bdIvJkaKaecg?##
?@@FvRdtRpwdGgkFtXMMpSTvbGRHBY4yS825HDw499TY4sxiFu8wnwPgGDUFpJE0t+TyaHw?##
?@@dzaZMWFQj33LwP/vFS0JrNsXlx4a3tNt7SMUJ0h01DfzN8DaUdIqPMWLYzUT57pWmaIE?##
?@@CHtR4A8DqwtIBPwrFVlUQBv3/GzCjXklV03rvf9pQUkdDYGjt6hu8ZKH9RWNZb/nObW3?##
?@@HTDiH3q+vgiPExqnFoOQT/vKQ5nKsQd+qCE6isuzBaADCr6gZDzTdiPhKVH569tEfGkM?##
?@@kh6cg6gh39y8J/811wd09sxCwc2OPRmXLP8YVX1yz02Dt6kKBKotIu/XPWbF/u0WQ9dO?##
?@@Y4obScemaTo2rNB4vmAQq7A6OBgqC8V4FZodeMtRS66SV8utNqjGj7A3eZUJgBxH9t/9?##
?@@tEIlP0PuDhqm1Z9v0IuJ39JAhlheS27dsXrvMuLkUDvFvc5D30rxWWOMFxWohotFPSPQ?##
?@@wbIdvBFjbmtmKWJsDRfInJ3LhmIXUKVH0YQF/O5ry4vz8mTM/K7IFpzwdXMBifJRRqwU?##
?@@8lfFpjG9MpKdcAI7LSSUN/VOOyQY23LRnquqQWG9muFPs+nP4Fvys7N7osD+O1VxD+Ms?##
?@@Z6xnqyqHX3tvAJ+pU5V3t2KodltdR9CRXBKbstZMigCaye+P7oByg2ggkFf3hGFw7qVw?##
?@@yO6jJg/dn4+CaibGNNA6hMQvXet7KAydan0G0y2t3MJGydC0n2ZG90806gSIVa14FnBh?##
?@@3aM0ZkR36gWv6I9znVuQ0JSNtd5k7B/SRFGTbyTPOesEnNlMmD9qezzNQVFyxs6XRfmU?##
?@@lkDo5EcROe3+rRp5jjgR3sRUtS4OFnNCVIiuyTDwbdFI3Q5tQFsVYux6llkfZNH2DYex?##
?@@M+2Gt4FR6TK1entehX4OmzBIomn3tJqZE07y3CIhgOTpO1aHHfinMcxo44GKo24Gtovv?##
?@@TMRkWbZTcwPMplDXbCaQQtjjx0+/IIS0lWqyH7Xbv0oLJX0wC/dIrKwHZgV20CWqBRzL?##
?@@ab2NW8CkdTYBsrU7swd1puPdXsX7Xw9Nwf5Y1T8nvm3wlIVjbPdwHLpweErrSTHH/dL5?##
?@@YoEI8Sf082jRbrzCt7dav+2HGVC0mixo33trMUXfH/jB/hFX6wDzvhg6RY6hfkYRW5YD?##
?@@A1DyJk1R8U/BMeHYo0nMQMtMB2q4jzb+KJBOq7PaoyFKhRz3uA8cZW0ES9uBZQQZQC00?##
?@@bNfHZNKsquufldtGHHQGNZqy5ZYO3WIO7ffaUmdNkk9+4is/P4B2djxN57U3iHu8JuOm?##
?@@4cWAyNfcv3DJGulMrj9nGCV499ZyB75OU3b/BGDLzCMF2YHvfRO6TBcmaVbpC/KgVUnB?##
?@@jvxQId3kmbtRnzDGF09IAkcd29bfHE07KewaHHBPppkvHp45GRg41cdBbzGw4qLJdjG6?##
?@@/8e9IyTmTspdNc4II2FN4jDoTUj/xDgD8OZmh/6SVvFGtFrdAyoEUp+MWqGUtTHnoPgp?##
?@@2HjVrA06Vffhx9LHvwd19CeBoTGxi5gR/XW/YGKRYxST/inUO7cp4IqGUix0+yKn+zX9?##
?@@Tc13sZQKOYsEFdVSF14ycyXaoeHpL7NL0QGttPOHQze97PRIj5VINtZgD+2dcJbG5p2O?##
?@@SrM+qFQcEPTWhjtQ8boUBQaX7gw8ulBbNNYJ4CTNeqLpiwH2SSvWiFUyBH+aign/crBW?##
?@@Q3e4PfIrLzpxyVYW5+ht1lwWqVOCgmC3J2hzws7LgZhNvN0dZo08vIaobtr4dlrc6eRb?##
?@@aLV6A3baqulsocbsjrjZVrwHk3ZKVfd1bPs4jX2Z5ZW6Je3QqwXCC9heaHbl5pXG1WN9?##
?@@dSVygE3lKgoFUOcgjmIaASEpTxQ7VeN7F2O8c1mlOxfbRHkoSBW/ba6eX5Nq4hCatlcw?##
?@@EtEQU/8s9L6R4CAeZAR95M9tVwac0YfR1jMhOeapxlZRD84iTRz1iCkvJTZxVSbVs1Zb?##
?@@B3M+h7pT1zgnd+SUWC2p+2wcigt5vBdZrNodXbgNzPS+knwauXT7vO1yz5FB7kaCPdAj?##
?@@RH/LlojfAS9HQQF5X2ZbBdpK4mBnqNMQNOIFgfNsBbqCZGpfKop54nLbE5ImxHhFpzgR?##
?@@CYRlOKTHrz1w5OAzOE+hiteBPLrCOWDRjy2EQSugMdIU3U6XXpew7nXKFXmXxEy7RwVB?##
?@@UvjWaxNLqs4QgCxnJwYGHyoHcttj1NCUT/4GrXUpOoQi+48t3adv1SrLAXQNsMv92+CR?##
?@@Q3e4PZFoaQx18xOCWKm433nnIz9vnE9YPRV2UpIhWUC5+JDI+WyG7Y8KBBBqpzme1/0D?##
?@@UOawuiTTa8IIF1hXIEA43U+tVlQ0dPhNeZHVUR0kS/0UeO30oDkYPm1EYuwCOnd49vWX?##
?@@qeRTc9f+wwNfDCj1h8u5odtVbDM0k0uCwzfn3pHc+De7r4K8OxoH5uOpiNJcbpFsefhG?##
?@@bujtFfXYRUDaSYor2v/kZ0eunY/lc85FwbxPxrAReKlxA99Nvwrp2KrSXg8b+3w2D925?##
?@@R5kEn0BZkhX3cNL1GP8Z3j3OuvRMxP4+GwuporoxzqCJywrttZsRN1f+mLQJtrpZRodL?##
?@@mFIPlUU0bPwCP+/AZaaZhFtSdkUK+SSCjLSHSwkRP1aNGdBZNBYY1XWP8SiHQqtQopz3?##
?@@tUs4l18IS7yLVWtwE+HtkqRppU6rpduMYx4ivgFqslpadaf+zRFqADm8PkCmb0jPQmuF?##
?@@3qtHv91nr4TLw19f6UI3zSkzZGTJWJvozyFVTGCh4XYOwe7AibSxT18IP0IaZM5Dtaxp?##
?@@R5kEn1nk46aHHnk4u5Wyfq8Ua54bJ1R5PiqggX6of2l22wgqPrpqDsu4FZBbP/nTbVcF?##
?@@3JohDiLjg4V7K9resinYCSDkr4h+QfUhzcYs6gvY937GDqYGGFKHU1Gp+kQZnjODb4aV?##
?@@Ecn9+8FBRNzpnm+RBZ/zyFBb0Sl5YD83WtIK8Z9IiXvti2Yj97HTpLHfqIY4KDSL7jab?##
?@@FvRdtez2+txov9Dry3ia95nNwImhEPwiCDNRP0PMxF7TOw/Xy+wMm9WGTsKDUiMOY77y?##
?@@p9Mtwm4pqrPZT0cnU8wjZ9+AHfGDsrm7wJNH3glAcquxMZmqTEq4rWjL//snOa5PCtZR?##
?@@0DM86fsRRhw7BnBRSd//p5i/EgUbiTsgodY0TiyubVP5MChjzKiLNO1mfnka7T+Toh0g?##
?@@LboUpYkJVNXiZzpdvubz790p2Zp3DcKzSN52Et/l12txUgpWZVbQ1pmU1zinrGqyItOm?##
?@@PkxYg5QbKPldnnLGius6I7XIgcQtDAWSoBhtUTA72SvGDs2CAoxOeZcO21nyjsd0P2Li?##
?@@F/xwDRV2hQBp8KVdfNuVqA7XPgJ2WhgX5nZ26eVxsi02jQjleqCoP27UW2fAaVPfQVmU?##
?@@GAWDZZyVqjpv4JEjexGlEtn5+aw7ZoUYvVkIJ+jyHEOmYTUSf2Ueeaq4MHQnpTdC/VU9?##
?@@yfe2f1KceGnKzCPkkYx3N5EfLlch6teQAioz4ANN6t7azvNem5Vc+NpCIsB2AgBiWqiS?##
?@@1meu/KlemQHyz8HN8WeUrUicAvFciDAWT4Eax7ax64aBDCaPAtHXfs6L1jq0sH9fCqt1?##
?@@NxDTGSw80193TNSUdaZelyOMxbKHiUsmx8Pq1AUAcuFoBunhYB19/8YZkNUAtVfRNZzR?##
?@@qNtAG4DsoeGEshZR02eY3Kt0Ery8wehg6qrafS58A/k7PMYIN13AkO+/vpJFubcnoqmt?##
?@@0TxPQi3YNscsi73eSdwj6jozanKnmku+nO3y0wHe9yDDt/fgrm2VWq/ZM7cet6m9EvWl?##
?@@FvRdtfzWC7sDPe3pQ2MDyMACxQ9faM10LTH4PVGswsrV8Be8NHj6AlDyI8vrNFprZp41?##
?@@ywjcMMJUHCBbbiAmJhhpVYbX7EmmYU5iT2AN+NRblEtKYD5xHntrnlriAkpaHnS1zilW?##
?@@zBHviK4Ortd22vA/WIXxQg1vkD88HKnRxbdEvXQIf/oMDRJ6gje4ZyxNY00CdH5Mqh07?##
?@@FetKXGzdUCMI3ZrpUXiP6Pq5BUdQre6RG7Lp660y1EezJolAzqT7WjikHz0oQwe+Kaha?##
?@@LsIn/s+WWiIg9OCcfDVX24Vlj9o4evk46uzNv2y5K/95TXe/FS693eIKclY2n+Y2QGJm?##
?@@7z6MnR5+cVUUj588c5SMkNIrVIh1ocZftAJAF0oT8jPRR2wzDaTft90HI83eidF/5njx?##
?@@wKoKZA8S//0cXK+9YoITYLzGTqScy89pGscY5dQ2wNN0cd18SghUBLjYXG2cfDFfhWU3?##
?@@wbIdvOwuqumgwubWOiOzoQzerzJbHjB2tdNrThrgcUcaXnag7CuhZUvEZFuxuWxyrFbL?##
?@@/r+qynx4fOdA8BCjOmTnLHVH6lBER9j+oXxhiJxxZI+fAqVooQEZ2Pd6LRWSfkvaNu8J?##
?@@dzaZMXYrvgYoHBqpOlepaK65Br2L9jTGdQnGnGxo73VMC6+eZ2sE9BOYmYtV7t3O5wLO?##
?@@SKIX97idNQsor9NcoPyTCLqCsW/b/rpgzwBpqoDdBCsuGWPGD5t3MogkGVoCTsQnIGaG?##
?@@ha6kBpbUl203pbFIXLj7TTzMSISfdLdGe9DU/GkQs4PgU+4wRySeI1jCD0b9uNU1knx1?##
?@@KqDbnEzHcaJhmDMM9gpUhkJSbeyJMkqIZFkOVa0SsrAstZvCXkVsGt7HtMneH7BOGDxI?##
?@@I2RVMV+GTgx2DLO+5KnkFzFYna2bnw9eh8k3OoCP/Q41v2PbyLCyf1XUHUcqU8xE7sRv?##
?@@5N+60RR6nuh9cuT+RcZpfFQnvDBZJcQrcKSFDUSx6HrXtnVHmKfX89wI1+DGyxvZM3se?##
?@@1V6bo8tMQifSQ1Ms7uJ+6o3zFdudJH2pox9wd+t3hIhP2qCGwu6i/D+Wf003FuF2aQ1D?##
?@@3qtHv1MUrhgx0OilFlikucpWk7Pxsl5M9XsVfrQhx6/ct04o7LqHvbGNAWxXl3npbpB8?##
?@@Q3e4PYPLc5tTjfpHIaAULBqad+EhfHCIbY2Zadx7aMh1GicZEi/xpWq2Mr40uCNjvas+?##
?@@aLV6A2oi8UXSz8lrauBfAV09tYdyrvSUgyGDHhMiBAzKfOy1N0yhEO4ePPS3onMeE1d/?##
?@@oZ+6sJjHpeWlXPoq/CKk4buK/v4mouHoEtBFb8ZMNeZ0Xm6tNE3r8P1XR42/JdRXcxyn?##
?@@ygDJ17bVbZlO/AnQuia6zI+1wH84I9G9Zctmh2HRc41Bq/ZQ/Hgk0ppadcmqQ2NT0pqm?##
?@@37RaF2y/4jbUCtbIB7uXuOsjNqk0mBgpk+nnx2fBFh570+ijC57Z3I0iBydE7VB903dV?##
?@@zBHviBlkQVN/pdvUYdaFVOcvR48sdCMWy078dJ0dqaKpfx2/x0XYrcX88u76oa5N0Mov?##
?@@oZ+6sPnbQ8k1Meb5uufGmXNsMmkv6jSfTbbWiJhdsL59ZrU7de5jj+mgj1UZp2Jw5mHG?##
?@@KqDbnOBEqkGZnUHNyiTU/y4lBFXNwHOioVfcvLzmUJN7bgdPbPnraPMrT2sSM65D9oQx?##
?@@6xs/O8l7aq9B02jyTtFCBsViCSBjokM3QpZ89cW5KRlEY3RhGraCf4Fb1sFI119Xb9kX?##
?@@jOoqcMhcvgRBP8Sw0owDMd6ERfGQBJwEfe/hnvmSkLWkGPS/H+jzZiBd3CLCNgYSpuQC?##
?@@Daaxmf8RLaciQyDtGkz3HqdyRsCidtHDXV/C7Ige8oNoXEPgy6Yqn+eUZ9WSWTwtgOkH?##
?@@wrswFOWXBZX7mRhUQap1269C7ZBbpp1pdxVgLOhbBTtrVwOFzLgImrXEIpmN+scU1wIy?##
?@@T96dYvj2pon1rNBn5r9C8ibXaELAuIIvw3DxtlBpGBMirZ6GyFC8Ctt/l0dgm6Z1GpXz?##
?@@6AEGMiccpnCtOTrtzh/4/FEkkGJElXewWYRmgp3aSzshKSeHILslhx5PuajZYqwAhqFF?##
?@@eUe/4RDkVb7AQRabqrX/5W65QCfDFMTkllKqUf2kYsNQatwMsY9V97FcPAMrm9q7Q0d2?##
?@@di2G2DDXvhG0hDVJVGsS5PVVxcWyZc5TvQxJUDrX59Cih/34dfjcBAGAkJDZN90B+VJ/?##
?@@q/V5JKk1/A1YusRaLJj3KoTdoIIF0SCIma88aJm24JzdW1PpRG74unEK5pe5BDpha//E?##
?@@OBjmcT1Hsc3qSJgfPNpdwlgCEniA6F6xDTj7BEqEBJQFCLh5UooY72D6uCiO5i8pjZNJ?##
?@@xdVqHceJFhTSTT4H38X/PT5/eJT14pkOymHqaw33u74YmJx9by8DweaLR+3/hurbt2cV?##
?@@tlRL8A8ybBpMYW3fINN0I2E34HT2iZ5+MQHxj84ogNi85TkD/Bdczujj1Pbn5xDbicS5?##
?@@X2fO6FfRqiiI09uTc07zNYApeIFebCH2GlGoO4I/hZsqtGftQqR/CaYxC/4e1zVdpnuy?##
?@@ADe5HUkLRVjKtB2JmZMNRaFBb0d+Udpj0V9hljU/DLgp08BU5y/ueCA13joYlQ4CcRhN?##
?@@MdxgBzIIP8i6cwzjAFTSJAjNDFPLdMoVwd9vV1PoI6pNTBreS3ofbYLPt+ixvL4qK+EI?##
?@@elDSOrKG47cE+GpOQUwFKNHZJNo+2obDOn6p7M9ouULJXUFeE0MhxBWK0aONN1F2DpLU?##
?@@T96dYr7c4cmjB8oGiqHMlM3Silc/H1FhfVp0jFNn2JXJ5fGLgOVu9Kx24QHLBwgjs6kO?##
?@@4L1tb2Y6XGF4yn8waoFeyAz74JmYNZxPKCL8ZMb+9vCxMDj3QpaU94ysQwVfyPHdSpCs?##
?@@Tc13sZwseevXoGek6Me5JOvIrpc0JIHZ8l1aR1LugZxVRlKzL5UMn6ZB+th/J9NrQgqc?##
?@@2on7XZtSq4JUWuE8/VD5LJusixCrLxjwdnzxK+2koijWktpTzTA10Lsmp41YwH0lt89H?##
?@@T96dYnPEx9sZBOlVJ+q7Iyq2LtV5AqJ2qnQmIOXRf/KZdgRAXI8NmQbXI3Na7mzeiNRq?##
?@@nHRb9r+6xijm7auhkfiQAYGy7OjZnveOxTRVbIMjNm4rrGlN1msUR7PQbZuOk32IAV6e?##
?@@ZZtB+vAP5rXV9bx1NGYuoSwAL3WDgXcXWExfGgQTdRlacGS7wtQ3eaPhdD7olFtaFyPa?##
?@@3qtHv0N4gPU1DHCgmpRVXBXJZ31f3avaOmL1YOULyap1+xgu4Ys4f7tA7Q/s7HeJ0r7w?##
?@@82DY/npQ0fF1T6WpkO+JeTaLHqkLrEpyBXkekWGLB2WE+FWmvkQZTSAEr2hHW0OECkhE?##
?@@GAWDZeWXiQ2wZLl/D7rp11dSLusMHaoOXn+B26HXCll43KHcSPNdkPShKLY1ESdeIR+G?##
?@@GQ6Wvt9THql3E9+GERpicrRfwfbAXV7S93IOKrqoS6pbTkXXNdnK2cbZM2B7VxYowm7j?##
?@@FvRdtRGnf8ekuLLaW8Hs+qjLQQZezuWrgM9IJCsxiXmIRg6jWq3Z+4aABIes2c+OkTZd?##
?@@Gx+8bzbHgQM6A3byB5McUQq9CkD66/XXmN/LSht8mIGKA89C5opv9lbOiBc31lnH6hsg?##
?@@xMxXxU3WqHGj3sUHtRiZnQZL4gJiQ16/WjS0S3sZJM4nY0D1w79Et4bArd49mych1dWy?##
?@@LboUpYzpHNG9KUHbRkz+ndFwnYfrWt/xxjh6PWdBUwpdV2YYGUXBGwXnm124fXVb0xU5?##
?@@ziIWOdtuVYGoy4osMsiojsO896AMDliJHy51J2CIRCGGR1eOjni5b/QK0picJEfLIgAM?##
?@@B3M+hyhOiDuKA7R5UW4yjxAmVFmO6xbRXf+eZ0CmjkRGAABzuo9JXC9gWs/py9Q6McAL?##
?@@/K2EGoo+/QAkF9sTAG8+5tfBl6/aTYIB42eFvxHZt0FjQjI+5Oty1fR1EeE/kB957ezr?##
?@@IVIvgdh0du9hp9j4GA6LVQ9GjWsWQByiElucbz1O7V4w/TlcJ58AIfYnMkZ2lQARcLB3?##
?@@psoaaqVkLDqXeKVL1YUrE8SN+8ZzxJ16+eH06wlAvukL85PIYy8ps/kGoCr0Z89vTKI2?##
?@@R5kEnzuQQXTZPEhlg9dRr9WptGT/w7/6W+5hzsyX6emjJPg0LyyY4j0p7dQ4bD5aP3ck?##
?@@EMDqojuN19QHW+vDQnqi6epJJ4dbWZP86pNxxy82PrOTyPlNmlFNPHUh8Vfa3IC2KjgR?##
?@@ZZtB+iKUXnTntjRSIrUW88GGGqn+ZkC7P6wgP2X+4gy0L9myNii1DTdWFFSuqjwkvDJF?##
?@@mmM1RTUQhGhN13XTZrz2FWWAvmvIeFZUSSV/f/O0sywvStw4SmR5Y5TBJk0UccEZV+/K?##
?@@i+IWGPMCdMYj8QIEYMI0ZhvFqg1NZ3xOfDeRGAp7pAUgzgd47E75EUfXY4VLRGaYch0B?##
?@@0DM86Weut9TyLAleS4m0d8ge9MLEG9PAz6nOh71rn89AXtJMYnoKu/h7WCzO5JlYMvHF?##
?@@uW2F+RHXdB6IcaXwA/5RlB1/tkA/YHpK/x8+gfiqyMQ+tcocP6UYXBW6jjpjaN6sj1mY?##
?@@8lfFprzCurdAMdqZ0cN1M3MdR7AFcc/NV/loq7ZnSGBDpLDsLv/CJBpOjytHyY1RUEl2?##
?@@q/V5JA3C1xhk3HZjw6zy+DzjJoDz2pRCni15WzxcCnGovY98703e01tOPBAgMC78nV2Y?##
?@@aLV6A3IkbkImTYfGfI98qgfRVlcBRBNfm42Rbfwg9M+cLWPqs1OW/KmZ7BrRs+SpqcI9?##
?@@beDavUKO0bXs3JAV7iPRXSnzRqnOITLpIoqbV7ZXri5KMTkJjBa7GDnq3vbuMN2pXEBJ?##
?@@Hjn1eKH86a6NM3uL+0hH7kgAv7CdEXv6Z9vvaTnJ/74j7KMZxEJkS/q98budfnvNLPCg?##
?@@M+2Gt2voRHWERjGZ3M1CxL0oS7gCLJoISQ4Fb51klTlmF93BcqMOYfo7ZERRd7gIGkvP?##
?@@JGxoitLmWHxdQ5Qi0v4cnJ/PT/cgNCfcxIlk0Fe7z9wC6Y2rHGf5bPPLROtZ3cilr9uU?##
?@@7Sxl7IXHuurSEoVSqfOLBS9Mkhj8mLGdyqrycle3rPTL91+qqHsmqOl8wQCGktBWJYXA?##
?@@elDSOkrz5z5nMFhPttJ9Sh9xb5bTcckmSEj4lNgittPBvdkPydz/1Bp3JWxkc0TQ6Gq0?##
?@@25IOtVOOuco1B04I/7IQ6Bbpaod1S02dlmYoqiA8PEAtL+A7+ozzwlhsJjJ6teVc8XUh?##
?@@QF1/NEEOrhxpDFBNK8fwfqlzdVJK4EjORKtI7xOg+4UV/LqMZHXQD01d4RZjDHwDXb94?##
?@@ZZtB+rccPqm+BrM7pyVcTAEqsIWc4LH5IpqQP6C0hGrR/95DLhp3j7eCPNdjLpIFV119?##
?@@unaYUav5PvPrYkdVWArX5Ss1TgqpVp/2VlgYH85JFETb/n8iibUqNdSc7ZkPVkVbRwXW?##
?@@25IOtZNeaVJcPkaLWmCV16ri+BionRL6hUw3dtFnGhB2jxYQ9cbJbSzj1cN7EQ5nU5kK?##
?@@gINETDdAnEKm0Y4RsoSAjWdWaVN/373Qt0TAvcFtIbdRByZssupp9JZZnrVa1w1t9oDA?##
?@@ha6kBl4V4rw2jigI9Ua8yFsxnzcJ8wmAFZ1q1VSR2Fupda6zf6N7umC2h8Hvslta8kWj?##
?@@5vDggkyA1/+sIHfVX8xQ+oNYtnObttXLk/cNk5fRlSOMnwH4MDsh5i1Meht3x75UCuOL?##
?@@K6ju9CbOJvv68D+B7BbC1O0vNWP1Ca9U4Cwsq2EW6T1bHvtNw/mdzoZfpd4So9rqWO9o?##
?@@yO6jJimlGhrUkqCFv3SXAQwML/T2yMQt4K/gC+tIeaqtp8uJ9zc3gYkGHotsD669ONa6?##
?@@idHwZ4gUOCncpQfL4t9AD0dyRihCRI3kaWRq5Pi2sCrQ8UD6Lb9AjVqxaFDp42WMRHm5?##
?@@jvxQIfN2X4v3u5GxPmr/n0YVj47ldDI9BQzQH8zn5TchGQY1K8HbY2tfS1OfvoqE/lwf?##
?@@49aneDbEim2+tdC4ZDTWVD1kanx0y8c/UC7iMrO6B0HHDvwpGy2vs1q+qc5lGeMi4JLa?##
?@@iMjdDxLhhd/qFj1PbnvSjAEzrAQ9UZnYR/pCLENmEOPrQg0ksoh/Fde+pRUftzDGrlXi?##
?@@0TxPQpzX2jUhsk1EIBc/muy1ZrbPK7+n7SI651M02/1vUtID1YqlIwgwNVEDkdBto6AZ?##
?@@/r+qyhi1BJLYsIz9k/+mvXrbqkgWXy+W+RIc7FiarV5YiTn8LCINPXGsiavopqm/uOZ3?##
?@@C5WL6YK6iuO2WvYhAnCJeJMTzWKqsXMv/OM12xmbAb1LZETojAxFEDTBK0xx6IEftdZ+?##
?@@uGVyoUU02HZUAecZA/g78RB2yVnFDTmCnSQPHC/ZTpSvxTevYf5mRsq0zXqYyKjjkJCF?##
?@@pcEHEvNK/0XFwca0KRMQ3CuVnh+XFhDpaDA2E+DZ/yKAt5h/UPHwOc51C0zaD3LdGppT?##
?@@1meu/DkkD9/yQRRNJCNoysFzQvjZ519k54Y3YAPN+NCalG67l+zZ41l4XRdAW+MAbCX6?##
?@@zyspkeYd2qwG+iyE5npq2xR4oetYBdZSHPtwZYggkyrHcd1hrZpUjZSge5BtsynZNsIr?##
?@@OBjmcRFyXI/kdlYh4hfu9fK4OLEjvTmYWM73n4VnT2Ld/LxdpK4OQrOdKDITalmhrleF?##
?@@Ecn9+8aoegwTgQbriNzcIYF3gfS3HaqLJBu2EjnrE99SCsT4pZC7lTmf3nTqCn15Z6MF?##